[Format]      =  4.0
[Frequency]   =  0
[Precision]   =  1e-008
[MinAngle]    =  30
[Depth]       =  6.2000000000000002
[LengthUnits] =  millimeters
[ProblemType] =  planar
[Coordinates] =  cartesian
[ACSolver]    =  0
[PrevSoln]    =  ""
[Comment]     =  "Add comments here."
[PointProps]   = 0
[BdryProps]   = 1
  <BeginBdry>
    <BdryName> = "A=0"
    <BdryType> = 0
    <A_0> = 0
    <A_1> = 0
    <A_2> = 0
    <Phi> = 0
    <c0> = 0
    <c0i> = 0
    <c1> = 0
    <c1i> = 0
    <Mu_ssd> = 0
    <Sigma_ssd> = 0
  <EndBdry>
[BlockProps]  = 14
  <BeginBlock>
    <BlockName> = "Air"
    <Mu_x> = 1
    <Mu_y> = 1
    <H_c> = 0
    <H_cAngle> = 0
    <J_re> = 0
    <J_im> = 0
    <Sigma> = 0
    <d_lam> = 0
    <Phi_h> = 0
    <Phi_hx> = 0
    <Phi_hy> = 0
    <LamType> = 0
    <LamFill> = 1
    <NStrands> = 0
    <WireD> = 0
    <BHPoints> = 0
  <EndBlock>
  <BeginBlock>
    <BlockName> = "NdFeB 10 MGOe (Bonded)"
    <Mu_x> = 1.2230000000000001
    <Mu_y> = 1.2230000000000001
    <H_c> = 445634
    <H_cAngle> = 0
    <J_re> = 0
    <J_im> = 0
    <Sigma> = 0
    <d_lam> = 0
    <Phi_h> = 0
    <Phi_hx> = 0
    <Phi_hy> = 0
    <LamType> = 0
    <LamFill> = 1
    <NStrands> = 0
    <WireD> = 0
    <BHPoints> = 0
  <EndBlock>
  <BeginBlock>
    <BlockName> = "Linear Steel"
    <Mu_x> = 1000000
    <Mu_y> = 1000000
    <H_c> = 0
    <H_cAngle> = 0
    <J_re> = 0
    <J_im> = 0
    <Sigma> = 0
    <d_lam> = 0
    <Phi_h> = 0
    <Phi_hx> = 0
    <Phi_hy> = 0
    <LamType> = 0
    <LamFill> = 1
    <NStrands> = 0
    <WireD> = 0
    <BHPoints> = 0
  <EndBlock>
  <BeginBlock>
    <BlockName> = "Copper"
    <Mu_x> = 1
    <Mu_y> = 1
    <H_c> = 0
    <H_cAngle> = 0
    <J_re> = 0
    <J_im> = 0
    <Sigma> = 58
    <d_lam> = 0
    <Phi_h> = 0
    <Phi_hx> = 0
    <Phi_hy> = 0
    <LamType> = 0
    <LamFill> = 1
    <NStrands> = 0
    <WireD> = 0
    <BHPoints> = 0
  <EndBlock>
  <BeginBlock>
    <BlockName> = "NdFeB 40 MGOe"
    <Mu_x> = 1.0489999999999999
    <Mu_y> = 1.0489999999999999
    <H_c> = 979000
    <H_cAngle> = 0
    <J_re> = 0
    <J_im> = 0
    <Sigma> = 0.66700000000000004
    <d_lam> = 0
    <Phi_h> = 0
    <Phi_hx> = 0
    <Phi_hy> = 0
    <LamType> = 0
    <LamFill> = 1
    <NStrands> = 0
    <WireD> = 0
    <BHPoints> = 0
  <EndBlock>
  <BeginBlock>
    <BlockName> = "M-22 Steel"
    <Mu_x> = 1
    <Mu_y> = 1
    <H_c> = 0
    <H_cAngle> = 0
    <J_re> = 0
    <J_im> = 0
    <Sigma> = 1.8999999999999999
    <d_lam> = 0.63500000000000001
    <Phi_h> = 0
    <Phi_hx> = 0
    <Phi_hy> = 0
    <LamType> = 0
    <LamFill> = 0.97999999999999998
    <NStrands> = 0
    <WireD> = 0
    <BHPoints> = 47
      0	0
      0.050000000000000003	15.120714
      0.10000000000000001	22.718292000000002
      0.14999999999999999	27.842732999999999
      0.20000000000000001	31.871434000000001
      0.25	35.365043999999997
      0.29999999999999999	38.600588000000002
      0.34999999999999998	41.736201999999999
      0.40000000000000002	44.873978999999999
      0.45000000000000001	48.087806999999998
      0.5	51.437235999999999
      0.55000000000000004	54.975220999999998
      0.59999999999999998	58.752992999999996
      0.65000000000000002	62.823644000000002
      0.69999999999999996	67.245284999999996
      0.75	72.084406000000001
      0.80000000000000004	77.420100000000005
      0.84999999999999998	83.350020999999998
      0.90000000000000002	89.999611999999999
      0.94999999999999996	97.537352999999996
      1	106.20140600000001
      1.05	116.34846400000001
      1.1000000000000001	128.54732899999999
      1.1499999999999999	143.76543100000001
      1.2	163.75416899999999
      1.25	191.86815799999999
      1.3	234.833507
      1.3500000000000001	306.50976900000001
      1.3999999999999999	435.255202
      1.45	674.911968
      1.5	1108.3255690000001
      1.55	1813.085468
      1.6000000000000001	2801.2174209999998
      1.6499999999999999	4053.6531169999998
      1.7	5591.10689
      1.75	7448.318413
      1.8	9708.81567
      1.8500000000000001	12486.931615
      1.8999999999999999	16041.483644
      1.95	21249.420623999998
      2	31313.495878000002
      2.0499999999999998	53589.446877000002
      2.1000000000000001	88477.484601000004
      2.1499999999999999	124329.41054
      2.2000000000000002	159968.5693
      2.25	197751.604272
      2.2999999999999998	234024.75134700001
  <EndBlock>
  <BeginBlock>
    <BlockName> = "Carpenter Silicon Core Iron "A", 1066C Anneal"
    <Mu_x> = 7000
    <Mu_y> = 7000
    <H_c> = 0
    <H_cAngle> = 0
    <J_re> = 0
    <J_im> = 0
    <Sigma> = 4
    <d_lam> = 0
    <Phi_h> = 0
    <Phi_hx> = 0
    <Phi_hy> = 0
    <LamType> = 0
    <LamFill> = 1
    <NStrands> = 0
    <WireD> = 0
    <BHPoints> = 35
      0	0
      0.076137999999999997	27.383403999999999
      0.14288999999999999	31.395700000000001
      0.21798000000000001	36.490250000000003
      0.30552000000000001	42.403651000000004
      0.39304	48.938552999999999
      0.48466999999999999	55.704230000000003
      0.58045000000000002	63.402555
      0.68454999999999999	72.654231999999993
      0.77612999999999999	81.009866000000002
      0.85528000000000004	90.965007999999997
      0.91776999999999997	100.076628
      0.97614000000000001	110.875291
      1.0510999999999999	124.506912
      1.1262000000000001	144.71163200000001
      1.1930000000000001	168.210859
      1.2515000000000001	195.55367899999999
      1.3058000000000001	225.79311799999999
      1.3476999999999999	260.75150100000002
      1.3937999999999999	309.50861800000001
      1.4316	367.41714400000001
      1.4694	436.172079
      1.4990000000000001	525.02828399999999
      1.5244	636.38899800000002
      1.5414000000000001	745.35442899999998
      1.5626	897.31556899999998
      1.5839000000000001	1095.1451629999999
      1.6094999999999999	1402.632513
      1.6267	1771.9515590000001
      1.6479999999999999	2223.0762450000002
      1.6652	2713.5122019999999
      1.6822999999999999	3335.0122550000001
      1.7036	4042.6151319999999
      1.7205999999999999	4767.5658979999998
      1.7377	5779.3934479999998
  <EndBlock>
  <BeginBlock>
    <BlockName> = "M-15 Steel"
    <Mu_x> = 1
    <Mu_y> = 1
    <H_c> = 0
    <H_cAngle> = 0
    <J_re> = 0
    <J_im> = 0
    <Sigma> = 1.8999999999999999
    <d_lam> = 0.63500000000000001
    <Phi_h> = 0
    <Phi_hx> = 0
    <Phi_hy> = 0
    <LamType> = 0
    <LamFill> = 0.97999999999999998
    <NStrands> = 0
    <WireD> = 0
    <BHPoints> = 47
      0	0
      0.050000000000000003	15.120714
      0.10000000000000001	22.718292000000002
      0.14999999999999999	27.842732999999999
      0.20000000000000001	31.871434000000001
      0.25	35.365043999999997
      0.29999999999999999	38.600588000000002
      0.34999999999999998	41.736201999999999
      0.40000000000000002	44.873978999999999
      0.45000000000000001	48.087806999999998
      0.5	51.437235999999999
      0.55000000000000004	54.975220999999998
      0.59999999999999998	58.752992999999996
      0.65000000000000002	62.823644000000002
      0.69999999999999996	67.245284999999996
      0.75	72.084406000000001
      0.80000000000000004	77.420100000000005
      0.84999999999999998	83.350020999999998
      0.90000000000000002	89.999611999999999
      0.94999999999999996	97.537352999999996
      1	106.20140600000001
      1.05	116.34846400000001
      1.1000000000000001	128.54732899999999
      1.1499999999999999	143.76543100000001
      1.2	163.75416899999999
      1.25	191.86815799999999
      1.3	234.833507
      1.3500000000000001	306.50976900000001
      1.3999999999999999	435.255202
      1.45	674.911968
      1.5	1108.3255690000001
      1.55	1813.085468
      1.6000000000000001	2801.2174209999998
      1.6499999999999999	4053.6531169999998
      1.7	5591.10689
      1.75	7448.318413
      1.8	9708.81567
      1.8500000000000001	12486.931615
      1.8999999999999999	16041.483644
      1.95	21249.420623999998
      2	31313.495878000002
      2.0499999999999998	53589.446877000002
      2.1000000000000001	88477.484601000004
      2.1499999999999999	124329.41054
      2.2000000000000002	159968.5693
      2.25	197751.604272
      2.2999999999999998	234024.75134700001
  <EndBlock>
  <BeginBlock>
    <BlockName> = "M-19 Steel"
    <Mu_x> = 4416
    <Mu_y> = 4416
    <H_c> = 0
    <H_cAngle> = 0
    <J_re> = 0
    <J_im> = 0
    <Sigma> = 1.8999999999999999
    <d_lam> = 0.63500000000000001
    <Phi_h> = 0
    <Phi_hx> = 0
    <Phi_hy> = 0
    <LamType> = 0
    <LamFill> = 0.97999999999999998
    <NStrands> = 0
    <WireD> = 0
    <BHPoints> = 47
      0	0
      0.050000000000000003	15.120714
      0.10000000000000001	22.718292000000002
      0.14999999999999999	27.842732999999999
      0.20000000000000001	31.871434000000001
      0.25	35.365043999999997
      0.29999999999999999	38.600588000000002
      0.34999999999999998	41.736201999999999
      0.40000000000000002	44.873978999999999
      0.45000000000000001	48.087806999999998
      0.5	51.437235999999999
      0.55000000000000004	54.975220999999998
      0.59999999999999998	58.752992999999996
      0.65000000000000002	62.823644000000002
      0.69999999999999996	67.245284999999996
      0.75	72.084406000000001
      0.80000000000000004	77.420100000000005
      0.84999999999999998	83.350020999999998
      0.90000000000000002	89.999611999999999
      0.94999999999999996	97.537352999999996
      1	106.20140600000001
      1.05	116.34846400000001
      1.1000000000000001	128.54732899999999
      1.1499999999999999	143.76543100000001
      1.2	163.75416899999999
      1.25	191.86815799999999
      1.3	234.833507
      1.3500000000000001	306.50976900000001
      1.3999999999999999	435.255202
      1.45	674.911968
      1.5	1108.3255690000001
      1.55	1813.085468
      1.6000000000000001	2801.2174209999998
      1.6499999999999999	4053.6531169999998
      1.7	5591.10689
      1.75	7448.318413
      1.8	9708.81567
      1.8500000000000001	12486.931615
      1.8999999999999999	16041.483644
      1.95	21249.420623999998
      2	31313.495878000002
      2.0499999999999998	53589.446877000002
      2.1000000000000001	88477.484601000004
      2.1499999999999999	124329.41054
      2.2000000000000002	159968.5693
      2.25	197751.604272
      2.2999999999999998	234024.75134700001
  <EndBlock>
  <BeginBlock>
    <BlockName> = "M-27 Steel"
    <Mu_x> = 12138
    <Mu_y> = 12138
    <H_c> = 0
    <H_cAngle> = 0
    <J_re> = 0
    <J_im> = 0
    <Sigma> = 2
    <d_lam> = 0.63500000000000001
    <Phi_h> = 0
    <Phi_hx> = 0
    <Phi_hy> = 0
    <LamType> = 0
    <LamFill> = 0.97999999999999998
    <NStrands> = 0
    <WireD> = 0
    <BHPoints> = 47
      0	0
      0.050000000000000003	17.059828
      0.10000000000000001	25.634971
      0.14999999999999999	31.338353999999999
      0.20000000000000001	35.778996999999997
      0.25	39.602124000000003
      0.29999999999999999	43.123142999999999
      0.34999999999999998	46.520439000000003
      0.40000000000000002	49.908177000000002
      0.45000000000000001	53.368284000000003
      0.5	56.966318000000001
      0.55000000000000004	60.760271000000003
      0.59999999999999998	64.806105000000002
      0.65000000000000002	69.161803000000006
      0.69999999999999996	73.890922000000003
      0.75	79.066315000000003
      0.80000000000000004	84.774675999999999
      0.84999999999999998	91.122721999999996
      0.90000000000000002	98.246298999999993
      0.94999999999999996	106.324591
      1	115.60341699999999
      1.05	126.435124
      1.1000000000000001	139.34975900000001
      1.1499999999999999	155.187082
      1.2	175.350538
      1.25	202.312017
      1.3	240.640455
      1.3500000000000001	299.11802699999998
      1.3999999999999999	394.99338599999999
      1.45	561.72617700000001
      1.5	859.32876299999998
      1.55	1375.4668879999999
      1.6000000000000001	2191.2469139999998
      1.6499999999999999	3328.145908
      1.7	4760.5061720000003
      1.75	6535.3394490000001
      1.8	8788.9706569999998
      1.8500000000000001	11670.804346999999
      1.8999999999999999	15385.186211
      1.95	20246.553030999999
      2	26995.131141000002
      2.0499999999999998	38724.496369
      2.1000000000000001	64917.284463000004
      2.1499999999999999	101489.30933800001
      2.2000000000000002	137202.82896099999
      2.25	176835.706764
      2.2999999999999998	216374.28360900001
  <EndBlock>
  <BeginBlock>
    <BlockName> = "M-36 Steel"
    <Mu_x> = 1616
    <Mu_y> = 1616
    <H_c> = 0
    <H_cAngle> = 0
    <J_re> = 0
    <J_im> = 0
    <Sigma> = 2
    <d_lam> = 0.63500000000000001
    <Phi_h> = 0
    <Phi_hx> = 0
    <Phi_hy> = 0
    <LamType> = 0
    <LamFill> = 0.97999999999999998
    <NStrands> = 0
    <WireD> = 0
    <BHPoints> = 47
      0	0
      0.050000000000000003	19.398586000000002
      0.10000000000000001	29.611086
      0.14999999999999999	36.311286000000003
      0.20000000000000001	41.398969999999998
      0.25	45.654680999999997
      0.29999999999999999	49.463585000000002
      0.34999999999999998	53.042856999999998
      0.40000000000000002	56.529325
      0.45000000000000001	60.018492000000002
      0.5	63.584023999999999
      0.55000000000000004	67.288555000000002
      0.59999999999999998	71.190393999999998
      0.65000000000000002	75.348315999999997
      0.69999999999999996	79.825601000000006
      0.75	84.694101000000003
      0.80000000000000004	90.039004000000006
      0.84999999999999998	95.965085000000002
      0.90000000000000002	102.60559499999999
      0.94999999999999996	110.135639
      1	118.793308
      1.05	128.91455500000001
      1.1000000000000001	140.99328499999999
      1.1499999999999999	155.78958700000001
      1.2	174.53384
      1.25	199.32994600000001
      1.3	233.989035
      1.3500000000000001	285.82186100000001
      1.3999999999999999	369.57162599999998
      1.45	515.788276
      1.5	785.78510400000005
      1.55	1282.7937979999999
      1.6000000000000001	2108.172454
      1.6499999999999999	3257.880122
      1.7	4726.4426309999999
      1.75	6512.0094010000003
      1.8	8720.2655529999993
      1.8500000000000001	11459.429228999999
      1.8999999999999999	14887.904936999999
      1.95	19350.577347999999
      2	26042.602019000002
      2.0499999999999998	39200.400310999998
      2.1000000000000001	65518.130312000001
      2.1499999999999999	100476.654669
      2.2000000000000002	136976.920182
      2.25	176029.81784199999
      2.2999999999999998	215228.81031199999
  <EndBlock>
  <BeginBlock>
    <BlockName> = "M-43 Steel"
    <Mu_x> = 1
    <Mu_y> = 1
    <H_c> = 0
    <H_cAngle> = 0
    <J_re> = 0
    <J_im> = 0
    <Sigma> = 2.6000000000000001
    <d_lam> = 0.63500000000000001
    <Phi_h> = 0
    <Phi_hx> = 0
    <Phi_hy> = 0
    <LamType> = 0
    <LamFill> = 0.97999999999999998
    <NStrands> = 0
    <WireD> = 0
    <BHPoints> = 47
      0	0
      0.050000000000000003	22.815826000000001
      0.10000000000000001	34.292324000000001
      0.14999999999999999	41.691794999999999
      0.20000000000000001	47.276539
      0.25	51.943272999999998
      0.29999999999999999	56.124130000000001
      0.34999999999999998	60.058388999999998
      0.40000000000000002	63.894412000000003
      0.45000000000000001	67.734109000000004
      0.5	71.654736999999997
      0.55000000000000004	75.720754999999997
      0.59999999999999998	79.991001999999995
      0.65000000000000002	84.523664999999994
      0.69999999999999996	89.380326999999994
      0.75	94.629947999999999
      0.80000000000000004	100.353469
      0.84999999999999998	106.649919
      0.90000000000000002	113.64520899999999
      0.94999999999999996	121.50566499999999
      1	130.459825
      1.05	140.83502200000001
      1.1000000000000001	153.12108799999999
      1.1499999999999999	168.08528999999999
      1.2	186.98695799999999
      1.25	211.991513
      1.3	246.99227999999999
      1.3500000000000001	299.27421299999997
      1.3999999999999999	382.88283799999999
      1.45	525.15514299999995
      1.5	777.59279800000002
      1.55	1226.4570960000001
      1.6000000000000001	1979.929758
      1.6499999999999999	3105.52556
      1.7	4589.1826570000003
      1.75	6410.9674969999996
      1.8	8681.3394960000005
      1.8500000000000001	11524.478784000001
      1.8999999999999999	15121.416504000001
      1.95	19833.366747
      2	26795.523691999999
      2.0499999999999998	40064.363461000001
      2.1000000000000001	66950.843427999993
      2.1499999999999999	103339.791774
      2.2000000000000002	141054.369267
      2.25	181684.21904299999
      2.2999999999999998	223103.57263000001
  <EndBlock>
  <BeginBlock>
    <BlockName> = "M-45 Steel"
    <Mu_x> = 4689
    <Mu_y> = 4689
    <H_c> = 0
    <H_cAngle> = 0
    <J_re> = 0
    <J_im> = 0
    <Sigma> = 2.8999999999999999
    <d_lam> = 0.63500000000000001
    <Phi_h> = 0
    <Phi_hx> = 0
    <Phi_hy> = 0
    <LamType> = 0
    <LamFill> = 0.97999999999999998
    <NStrands> = 0
    <WireD> = 0
    <BHPoints> = 47
      0	0
      0.050000000000000003	19.965330000000002
      0.10000000000000001	29.906288
      0.14999999999999999	36.398771000000004
      0.20000000000000001	41.371668999999997
      0.25	45.590262000000003
      0.29999999999999999	49.424858999999998
      0.34999999999999998	53.082279999999997
      0.40000000000000002	56.692664000000001
      0.45000000000000001	60.347374000000002
      0.5	64.117637000000002
      0.55000000000000004	68.064755000000005
      0.59999999999999998	72.246370999999996
      0.65000000000000002	76.720885999999993
      0.69999999999999996	81.551123000000004
      0.75	86.807958999999997
      0.80000000000000004	92.574503000000007
      0.84999999999999998	98.951520000000002
      0.90000000000000002	106.06504700000001
      0.94999999999999996	114.077777
      1	123.20691100000001
      1.05	133.75338500000001
      1.1000000000000001	146.15173799999999
      1.1499999999999999	161.05866800000001
      1.2	179.51663400000001
      1.25	203.267945
      1.3	235.37974800000001
      1.3500000000000001	281.52494799999999
      1.3999999999999999	352.64841200000001
      1.45	470.42617899999999
      1.5	677.45154100000002
      1.55	1051.0680359999999
      1.6000000000000001	1703.275165
      1.6499999999999999	2726.5179589999998
      1.7	4137.9810520000001
      1.75	5832.6197039999997
      1.8	7939.5529399999996
      1.8500000000000001	10565.294335000001
      1.8999999999999999	13843.912965
      1.95	17970.359698
      2	23423.776431999999
      2.0499999999999998	32234.325959999998
      2.1000000000000001	51366.778966999998
      2.1499999999999999	84577.843500999996
      2.2000000000000002	121162.49332199999
      2.25	160127.812767
      2.2999999999999998	202470.28224500001
  <EndBlock>
  <BeginBlock>
    <BlockName> = "M-47 Steel"
    <Mu_x> = 1
    <Mu_y> = 1
    <H_c> = 0
    <H_cAngle> = 0
    <J_re> = 0
    <J_im> = 0
    <Sigma> = 4.2999999999999998
    <d_lam> = 0.63500000000000001
    <Phi_h> = 0
    <Phi_hx> = 0
    <Phi_hy> = 0
    <LamType> = 0
    <LamFill> = 0.97999999999999998
    <NStrands> = 0
    <WireD> = 0
    <BHPoints> = 0
  <EndBlock>
[CircuitProps]  = 3
  <BeginCircuit>
    <CircuitName> = "A"
    <TotalAmps_re> = -0
    <TotalAmps_im> = 0
    <CircuitType> = 1
  <EndCircuit>
  <BeginCircuit>
    <CircuitName> = "B"
    <TotalAmps_re> = -0
    <TotalAmps_im> = 0
    <CircuitType> = 1
  <EndCircuit>
  <BeginCircuit>
    <CircuitName> = "C"
    <TotalAmps_re> = 0
    <TotalAmps_im> = 0
    <CircuitType> = 1
  <EndCircuit>
[NumPoints] = 254
6.7695604001708043	-6.3668329962227839	0	2
4.7008342975204123	-8.0165870118923426	0	2
7.6734813048158772	-7.4415117577132994	0	2
5.6047552022358538	-9.0912657734389786	0	2
8.9624477480102325	5.8251989613072359	0	2
7.7135721029656708	5.1830797626067415	0	2
8.8616284766505835	2.7991161381594769	0	2
10.110504121765512	3.4412353368038571	0	2
4.700834297506538	8.0165870119373182	0	2
6.7695604001169416	6.3668329962191059	0	2
5.5482189567954681	9.1379759668617169	0	2
7.6169450594058636	7.4882219511435064	0	2
10.602345507616514	1.3596625728886464	0	2
9.1985423526167462	1.322999999939384	0	2
9.1985423526026633	-1.322999999984912	0	2
10.602345507672801	-1.2863374270917638	0	2
-5.5482189567954681	-9.1379759668617169	0	2
-4.700834297506538	-8.0165870119373182	0	2
-6.7695604001169416	-6.3668329962191059	0	2
-7.6169450594058636	-7.4882219511435064	0	2
10.142318710235646	-3.3751716632200699	0	2
8.8616284765862403	-2.7991161381659451	0	2
7.7135721029375039	-5.1830797626639029	0	2
8.9942623365165471	-5.7591352876619144	0	2
-1.0336708309469071	-10.639075955583529	0	2
-0.75703860753211427	-9.2623108865873824	0	2
-3.3366978631387636	-8.6735204953536069	0	2
-3.613330086623924	-10.050285564293636	0	2
-8.9624477480102325	-5.825198961307235	0	2
-7.7135721029656708	-5.1830797626067415	0	2
-8.8616284766505835	-2.7991161381594769	0	2
-10.110504121765512	-3.4412353368038557	0	2
3.6848168179945731	-10.033969184433266	0	2
3.336697863139698	-8.6735204953181508	0	2
0.7570386075835347	-9.2623108865634425	0	2
1.105157562368043	-10.622759575622437	0	2
-10.602345507616512	-1.3596625728886462	0	2
-9.1985423526167462	-1.322999999939384	0	2
-9.1985423526026633	1.322999999984912	0	2
-10.602345507672796	1.2863374270917647	0	2
-10.142318710235646	3.3751716632200699	0	2
-8.8616284765862403	2.7991161381659451	0	2
-7.7135721029375039	5.1830797626639029	0	2
-8.9942623365165471	5.7591352876619144	0	2
-7.6734813048158763	7.4415117577133021	0	2
-6.7695604001708043	6.3668329962227839	0	2
-4.7008342975204123	8.0165870118923426	0	2
-5.6047552022358529	9.0912657734389786	0	2
-3.6848168179945731	10.033969184433266	0	2
-3.336697863139698	8.6735204953181508	0	2
-0.7570386075835347	9.2623108865634425	0	2
-1.1051575623680421	10.622759575622437	0	2
1.0336708309469085	10.639075955583531	0	2
0.88602157031244599	9.2328713670256999	0	2
3.2077149003584324	8.7029600149152966	0	2
3.613330086623924	10.050285564293638	0	2
7.2270367695999997	-3.4508437878999998	0	0
4.0227427756000003	-1.6008437878999999	0	0
7.7441945421999998	-2.8345191544000001	0	0
6.6020367695999997	-4.5333755426	0	0
6.3268628662999999	-5.2894096281999996	0	0
3.3977427755999998	-2.6833755425999999	0	0
2.6833755425999999	-3.3977427755999998	0	0
4.5333755426	-6.6020367695999997	0	0
5.2894096281999996	-6.3268628662999999	0	0
3.4508437878999998	-7.2270367695999997	0	0
2.8345191544000001	-7.7441945421999998	0	0
1.6008437878999999	-4.0227427756000003	0	0
0.625	-4.2842193305	0	0
0.625	-7.9842193305000002	0	0
1.4173316759000001	-8.1239287826000002	0	0
-0.625	-7.9842193305000002	0	0
-1.4173316759000001	-8.1239287826000002	0	0
-0.625	-4.2842193305	0	0
-1.6008437878999999	-4.0227427756000003	0	0
-3.4508437878999998	-7.2270367695999997	0	0
-2.8345191544000001	-7.7441945421999998	0	0
-4.5333755426	-6.6020367695999997	0	0
-5.2894096281999996	-6.3268628662999999	0	0
-2.6833755425999999	-3.3977427755999998	0	0
-3.3977427755999998	-2.6833755425999999	0	0
-6.6020367695999997	-4.5333755426	0	0
-6.3268628662999999	-5.2894096281999996	0	0
-7.2270367695999997	-3.4508437878999998	0	0
-7.7441945421999998	-2.8345191544000001	0	0
-4.0227427756000003	-1.6008437878999999	0	0
-4.2842193305	-0.625	0	0
-7.9842193305000002	-0.625	0	0
-8.1239287826000002	-1.4173316759000001	0	0
-7.9842193305000002	0.625	0	0
-8.1239287826000002	1.4173316759000001	0	0
-4.2842193305	0.625	0	0
-4.0227427756000003	1.6008437878999999	0	0
-7.2270367695999997	3.4508437878999998	0	0
-7.7441945421999998	2.8345191544000001	0	0
-6.6020367695999997	4.5333755426	0	0
-6.3268628662999999	5.2894096281999996	0	0
-3.3977427755999998	2.6833755425999999	0	0
-2.6833755425999999	3.3977427755999998	0	0
-4.5333755426	6.6020367695999997	0	0
-5.2894096281999996	6.3268628662999999	0	0
-3.4508437878999998	7.2270367695999997	0	0
-2.8345191544000001	7.7441945421999998	0	0
-1.6008437878999999	4.0227427756000003	0	0
-0.625	4.2842193305	0	0
-0.625	7.9842193305000002	0	0
-1.4173316759000001	8.1239287826000002	0	0
0.625	7.9842193305000002	0	0
1.4173316759000001	8.1239287826000002	0	0
0.625	4.2842193305	0	0
1.6008437878999999	4.0227427756000003	0	0
3.4508437878999998	7.2270367695999997	0	0
2.8345191544000001	7.7441945421999998	0	0
4.5333755426	6.6020367695999997	0	0
5.2894096281999996	6.3268628662999999	0	0
2.6833755425999999	3.3977427755999998	0	0
3.3977427755999998	2.6833755425999999	0	0
6.6020367695999997	4.5333755426	0	0
6.3268628662999999	5.2894096281999996	0	0
7.2270367695999997	3.4508437878999998	0	0
7.7441945421999998	2.8345191544000001	0	0
4.0227427756000003	1.6008437878999999	0	0
7.9842193305000002	-0.625	0	0
8.1239287826000002	-1.4173316759000001	0	0
4.2842193305	-0.625	0	0
4.2842193305	0.625	0	0
7.9842193305000002	0.625	0	0
8.1239287826000002	1.4173316759000001	0	0
0.80000000000000004	7.7999999999999998	0	0
1.3999999999999999	7.7999999999999998	0	0
0.80000000000000004	5.7999999999999998	0	0
1.3999999999999999	5.7999999999999998	0	0
2.6875644347000001	7.4549981494999997	0	0
3.2071796770000001	7.1549981494999999	0	0
1.6875644347000001	5.7229473419000003	0	0
2.2071796770000001	5.4229473418999996	0	0
-1.3999999999999999	7.7999999999999998	0	0
-0.80000000000000004	7.7999999999999998	0	0
-1.3999999999999999	5.7999999999999998	0	0
-0.80000000000000004	5.7999999999999998	0	0
-3.2071796770000001	7.1549981494999999	0	0
-2.6875644347000001	7.4549981494999997	0	0
-2.2071796770000001	5.4229473418999996	0	0
-1.6875644347000001	5.7229473419000003	0	0
-5.1124355653000002	6.0549981495000003	0	0
-4.5928203229999998	6.3549981495000001	0	0
-4.1124355653000002	4.3229473419	0	0
-3.5928203230000002	4.6229473418999998	0	0
-6.3549981495000001	4.5928203229999998	0	0
-6.0549981495000003	5.1124355653000002	0	0
-4.6229473418999998	3.5928203230000002	0	0
-4.3229473419	4.1124355653000002	0	0
-7.4549981494999997	2.6875644347000001	0	0
-7.1549981494999999	3.2071796770000001	0	0
-5.7229473419000003	1.6875644347000001	0	0
-5.4229473418999996	2.2071796770000001	0	0
-7.7999999999999998	0.80000000000000004	0	0
-7.7999999999999998	1.3999999999999999	0	0
-5.7999999999999998	0.80000000000000004	0	0
-5.7999999999999998	1.3999999999999999	0	0
-7.7999999999999998	-1.3999999999999999	0	0
-7.7999999999999998	-0.80000000000000004	0	0
-5.7999999999999998	-1.3999999999999999	0	0
-5.7999999999999998	-0.80000000000000004	0	0
-7.1549981494999999	-3.2071796770000001	0	0
-7.4549981494999997	-2.6875644347000001	0	0
-5.4229473418999996	-2.2071796770000001	0	0
-5.7229473419000003	-1.6875644347000001	0	0
-6.0549981495000003	-5.1124355653000002	0	0
-6.3549981495000001	-4.5928203229999998	0	0
-4.3229473419	-4.1124355653000002	0	0
-4.6229473418999998	-3.5928203230000002	0	0
-4.5928203229999998	-6.3549981495000001	0	0
-5.1124355653000002	-6.0549981495000003	0	0
-3.5928203230000002	-4.6229473418999998	0	0
-4.1124355653000002	-4.3229473419	0	0
-2.6875644347000001	-7.4549981494999997	0	0
-3.2071796770000001	-7.1549981494999999	0	0
-1.6875644347000001	-5.7229473419000003	0	0
-2.2071796770000001	-5.4229473418999996	0	0
-0.80000000000000004	-7.7999999999999998	0	0
-1.3999999999999999	-7.7999999999999998	0	0
-0.80000000000000004	-5.7999999999999998	0	0
-1.3999999999999999	-5.7999999999999998	0	0
1.3999999999999999	-7.7999999999999998	0	0
0.80000000000000004	-7.7999999999999998	0	0
1.3999999999999999	-5.7999999999999998	0	0
0.80000000000000004	-5.7999999999999998	0	0
3.2071796770000001	-7.1549981494999999	0	0
2.6875644347000001	-7.4549981494999997	0	0
2.2071796770000001	-5.4229473418999996	0	0
1.6875644347000001	-5.7229473419000003	0	0
5.1124355653000002	-6.0549981495000003	0	0
4.5928203229999998	-6.3549981495000001	0	0
4.1124355653000002	-4.3229473419	0	0
3.5928203230000002	-4.6229473418999998	0	0
6.3549981495000001	-4.5928203229999998	0	0
6.0549981495000003	-5.1124355653000002	0	0
4.6229473418999998	-3.5928203230000002	0	0
4.3229473419	-4.1124355653000002	0	0
7.4549981494999997	-2.6875644347000001	0	0
7.1549981494999999	-3.2071796770000001	0	0
5.7229473419000003	-1.6875644347000001	0	0
5.4229473418999996	-2.2071796770000001	0	0
7.7999999999999998	-0.80000000000000004	0	0
7.7999999999999998	-1.3999999999999999	0	0
5.7999999999999998	-0.80000000000000004	0	0
5.7999999999999998	-1.3999999999999999	0	0
7.7999999999999998	1.3999999999999999	0	0
7.7999999999999998	0.80000000000000004	0	0
5.7999999999999998	1.3999999999999999	0	0
5.7999999999999998	0.80000000000000004	0	0
7.1549981494999999	3.2071796770000001	0	0
7.4549981494999997	2.6875644347000001	0	0
5.4229473418999996	2.2071796770000001	0	0
5.7229473419000003	1.6875644347000001	0	0
6.0549981495000003	5.1124355653000002	0	0
6.3549981495000001	4.5928203229999998	0	0
4.3229473419	4.1124355653000002	0	0
4.6229473418999998	3.5928203230000002	0	0
4.5928203229999998	6.3549981495000001	0	0
5.1124355653000002	6.0549981495000003	0	0
3.5928203230000002	4.6229473418999998	0	0
4.1124355653000002	4.3229473419	0	0
7.1701327213754364	8.9910620483823358	0	2
-7.1701327213754364	-8.9910620483823358	0	2
6.6395140357276965	8.3844894635896239	0	2
-6.6395140357276947	-8.3844894635896239	0	2
3	0	0	0
-3	0	0	0
8.4032649766434826	-3.2225979785638565	0	0
6.9924842039990569	-5.6661419552251004	0	0
5.666141955271244	-6.9924842039621353	0	0
3.2225979786120003	-8.4032649766731922	0	0
1.4107807726813471	-8.888739933835101	0	0
-1.4107807726742065	-8.8887399338369644	0	0
-3.2225979785638561	-8.4032649766434808	0	0
-5.6661419552250463	-6.9924842039990027	0	0
-6.9924842039625625	-5.6661419552707191	0	0
-8.4032649766732348	-3.2225979786120296	0	0
-8.8887399338352076	-1.4107807726806787	0	0
-8.8887399338371385	1.4107807726742294	0	0
-8.4032649766432392	3.2225979785644885	0	0
-6.9924842039990489	5.666141955225088	0	0
-5.6661419552707182	6.9924842039625617	0	0
-3.2225979786120229	8.4032649766732206	0	0
-1.4107807726806787	8.8887399338352076	0	0
1.4107807726742105	8.888739933837023	0	0
3.2225979785644885	8.4032649766432392	0	0
5.6661419552250294	6.9924842039989796	0	0
6.9924842039625608	5.6661419552707173	0	0
8.4032649766731637	3.2225979786119994	0	0
8.8887399338352076	1.4107807726806787	0	0
8.8887399338371367	-1.4107807726742343	0	0
[NumSegments] = 198