[Format]      =  4.0
[Frequency]   =  0
[Precision]   =  1e-008
[MinAngle]    =  30
[Depth]       =  6
[LengthUnits] =  millimeters
[ProblemType] =  planar
[Coordinates] =  cartesian
[ACSolver]    =  0
[PrevSoln]    =  ""
[Comment]     =  "Add comments here."
[PointProps]   = 0
[BdryProps]   = 0
[BlockProps]  = 3
  <BeginBlock>
    <BlockName> = "Air"
    <Mu_x> = 1
    <Mu_y> = 1
    <H_c> = 0
    <H_cAngle> = 0
    <J_re> = 0
    <J_im> = 0
    <Sigma> = 0
    <d_lam> = 0
    <Phi_h> = 0
    <Phi_hx> = 0
    <Phi_hy> = 0
    <LamType> = 0
    <LamFill> = 1
    <NStrands> = 0
    <WireD> = 0
    <BHPoints> = 0
  <EndBlock>
  <BeginBlock>
    <BlockName> = "NdFeB 10 MGOe (Bonded)"
    <Mu_x> = 1.2230000000000001
    <Mu_y> = 1.2230000000000001
    <H_c> = 445634
    <H_cAngle> = 0
    <J_re> = 0
    <J_im> = 0
    <Sigma> = 0
    <d_lam> = 0
    <Phi_h> = 0
    <Phi_hx> = 0
    <Phi_hy> = 0
    <LamType> = 0
    <LamFill> = 1
    <NStrands> = 0
    <WireD> = 0
    <BHPoints> = 0
  <EndBlock>
  <BeginBlock>
    <BlockName> = "Linear Steel"
    <Mu_x> = 1000000
    <Mu_y> = 1000000
    <H_c> = 0
    <H_cAngle> = 0
    <J_re> = 0
    <J_im> = 0
    <Sigma> = 0
    <d_lam> = 0
    <Phi_h> = 0
    <Phi_hx> = 0
    <Phi_hy> = 0
    <LamType> = 0
    <LamFill> = 1
    <NStrands> = 0
    <WireD> = 0
    <BHPoints> = 0
  <EndBlock>
[CircuitProps]  = 0
[NumPoints] = 60
-0.61372420439999997	-9.2950214638999995	0	2
-3.4800122662000001	-8.6408099180000004	0	2
-0.92525351199999994	-10.6599205409	0	2
-3.7915415738	-10.005708995099999	0	2
10.1867658013	-3.2741109492999998	0	2
8.9254093863000001	-2.6666737145999999	0	2
7.6497911932999996	-5.3155221861999999	0	2
8.9111476083000003	-5.9229594209999998	0	2
9.1985423526000005	1.47	0	2
9.1985423526000005	-1.47	0	2
10.598542352600001	1.47	0	2
10.598542352600001	-1.47	0	2
7.7573753506000003	-7.3697440708000004	0	2
6.8844896279999999	-6.2751799954000003	0	2
4.5859050695999999	-8.1082400127999996	0	2
5.4587907922000003	-9.2028040883000006	0	2
-10.598542352600001	-1.47	0	2
-9.1985423526000005	-1.47	0	2
-9.1985423526000005	1.47	0	2
-10.598542352600001	1.47	0	2
3.7915415738	-10.005708995099999	0	2
3.4800122662000001	-8.6408099180000004	0	2
0.61372420439999997	-9.2950214638999995	0	2
0.92525351199999994	-10.6599205409	0	2
-8.9111476083000003	-5.9229594209999998	0	2
-7.6497911932999996	-5.3155221861999999	0	2
-8.9254093863000001	-2.6666737145999999	0	2
-10.1867658013	-3.2741109492999998	0	2
-10.1867658013	3.2741109492999998	0	2
-8.9254093863000001	2.6666737145999999	0	2
-7.6497911932999996	5.3155221861999999	0	2
-8.9111476083000003	5.9229594209999998	0	2
-5.4587907922000003	-9.2028040883000006	0	2
-4.5859050695999999	-8.1082400127999996	0	2
-6.8844896279999999	-6.2751799954000003	0	2
-7.7573753506000003	-7.3697440708000004	0	2
-7.7573753506000003	7.3697440708000004	0	2
-6.8844896279999999	6.2751799954000003	0	2
-4.5859050695999999	8.1082400127999996	0	2
-5.4587907922000003	9.2028040883000006	0	2
-3.7915415738	10.005708995099999	0	2
-3.4800122662000001	8.6408099180000004	0	2
-0.61372420439999997	9.2950214638999995	0	2
-0.92525351199999994	10.6599205409	0	2
0.92525351199999994	10.6599205409	0	2
0.61372420439999997	9.2950214638999995	0	2
3.4800122662000001	8.6408099180000004	0	2
3.7915415738	10.005708995099999	0	2
5.4587907922000003	9.2028040883000006	0	2
4.5859050695999999	8.1082400127999996	0	2
6.8844896279999999	6.2751799954000003	0	2
7.7573753506000003	7.3697440708000004	0	2
8.9111476083000003	5.9229594209999998	0	2
7.6497911932999996	5.3155221861999999	0	2
8.9254093863000001	2.6666737145999999	0	2
10.1867658013	3.2741109492999998	0	2
11.5	0	0	2
-11.5	0	0	2
10.699999999999999	0	0	2
-10.699999999999999	0	0	2
[NumSegments] = 42
0	1	-1	0	0	2
2	0	-1	0	0	2
1	3	-1	0	0	2
4	5	-1	0	0	2
6	7	-1	0	0	2
5	6	-1	0	0	2
8	9	-1	0	0	2
10	8	-1	0	0	2
9	11	-1	0	0	2
12	13	-1	0	0	2
14	15	-1	0	0	2
13	14	-1	0	0	2
16	17	-1	0	0	2
18	19	-1	0	0	2
17	18	-1	0	0	2
20	21	-1	0	0	2
22	23	-1	0	0	2
21	22	-1	0	0	2
24	25	-1	0	0	2
26	27	-1	0	0	2
25	26	-1	0	0	2
28	29	-1	0	0	2
30	31	-1	0	0	2
29	30	-1	0	0	2
32	33	-1	0	0	2
34	35	-1	0	0	2
33	34	-1	0	0	2
36	37	-1	0	0	2
38	39	-1	0	0	2
37	38	-1	0	0	2
40	41	-1	0	0	2
42	43	-1	0	0	2
41	42	-1	0	0	2
44	45	-1	0	0	2
46	47	-1	0	0	2
45	46	-1	0	0	2
48	49	-1	0	0	2
49	50	-1	0	0	2
50	51	-1	0	0	2
52	53	-1	0	0	2
54	55	-1	0	0	2
53	54	-1	0	0	2
[NumArcSegments] = 32
56	57	180	5	0	0	2
57	56	180	5	0	0	2
58	10	7.8964501711787989	5	0	0	2
10	55	9.921385371865572	5	0	0	2
55	52	15.792900342704645	5	0	0	2
52	51	9.9213853717730593	5	0	0	2
51	48	15.792900342254047	5	0	0	2
48	47	9.921385371876239	5	0	0	2
47	44	15.792900342223625	5	0	0	2
44	43	9.9213853722661334	5	0	0	2
43	40	15.792900342247121	5	0	0	2
40	39	9.921385371882419	5	0	0	2
39	36	15.792900342217434	5	0	0	2
36	31	9.9213853717878244	5	0	0	2
31	28	15.792900342676404	5	0	0	2
28	19	9.9213853718655667	5	0	0	2
19	59	7.8964501711812645	5	0	0	2
59	16	7.8964501711720834	5	0	0	2
16	27	9.921385371861513	5	0	0	2
27	24	15.792900342698159	5	0	0	2
24	35	9.9213853717805414	5	0	0	2
35	32	15.792900342253619	5	0	0	2
32	3	9.9213853718830105	5	0	0	2
3	2	15.792900342217605	5	0	0	2
2	23	9.9213853722595502	5	0	0	2
23	20	15.792900342236988	5	0	0	2
20	15	9.9213853718841332	5	0	0	2
15	12	15.792900342227057	5	0	0	2
12	7	9.9213853717914695	5	0	0	2
7	4	15.792900342682328	5	0	0	2
4	11	9.9213853718588592	5	0	0	2
11	58	7.896450171193087	5	0	0	2
[NumHoles] = 0
[NumBlockLabels] = 16
10.800000000000001	2.7000000000000002	3	-1	0	0	2	1	0
9.8000000000000007	-0.10000000000000001	2	-1	0	0	2	1	0
9.0999999999999996	4.5	2	-1	0	-154.30000000000001	2	1	0
6.2999999999999998	7.7000000000000002	2	-1	0	51.399999999999999	2	1	0
1.8999999999999999	9.5	2	-1	0	-102.90000000000001	2	1	0
-2.6000000000000001	9.3000000000000007	2	-1	0	102.90000000000001	2	1	0
-5.9000000000000004	8	2	-1	0	-51.399999999999999	2	1	0
-8.6999999999999993	4.4000000000000004	2	-1	0	154.30000000000001	2	1	0
-10.199999999999999	0.40000000000000002	2	-1	0	0	2	1	0
-9	-4.7999999999999998	2	-1	0	205.69999999999999	2	1	0
-6.5	-7.2999999999999998	2	-1	0	0	2	1	0
-2.6000000000000001	-9.6999999999999993	2	-1	0	0	2	1	0
2.2000000000000002	-9.6999999999999993	2	-1	0	0	2	1	0
5.7000000000000002	-7.9000000000000004	2	-1	0	0	2	1	0
8.5999999999999996	-4.5	2	-1	0	0	2	1	0
-6.3200000000000003	-7.4000000000000004	0	-1	0	0	0	1	0
