[Format]      =  4.0
[Frequency]   =  0
[Precision]   =  1e-008
[MinAngle]    =  30
[Depth]       =  6.2000000000000002
[LengthUnits] =  millimeters
[ProblemType] =  planar
[Coordinates] =  cartesian
[ACSolver]    =  0
[PrevSoln]    =  ""
[Comment]     =  "Add comments here."
[PointProps]   = 0
[BdryProps]   = 1
  <BeginBdry>
    <BdryName> = "A=0"
    <BdryType> = 0
    <A_0> = 0
    <A_1> = 0
    <A_2> = 0
    <Phi> = 0
    <c0> = 0
    <c0i> = 0
    <c1> = 0
    <c1i> = 0
    <Mu_ssd> = 0
    <Sigma_ssd> = 0
  <EndBdry>
[BlockProps]  = 5
  <BeginBlock>
    <BlockName> = "Air"
    <Mu_x> = 1
    <Mu_y> = 1
    <H_c> = 0
    <H_cAngle> = 0
    <J_re> = 0
    <J_im> = 0
    <Sigma> = 0
    <d_lam> = 0
    <Phi_h> = 0
    <Phi_hx> = 0
    <Phi_hy> = 0
    <LamType> = 0
    <LamFill> = 1
    <NStrands> = 0
    <WireD> = 0
    <BHPoints> = 0
  <EndBlock>
  <BeginBlock>
    <BlockName> = "NdFeB 10 MGOe (Bonded)"
    <Mu_x> = 1.2230000000000001
    <Mu_y> = 1.2230000000000001
    <H_c> = 445634
    <H_cAngle> = 0
    <J_re> = 0
    <J_im> = 0
    <Sigma> = 0
    <d_lam> = 0
    <Phi_h> = 0
    <Phi_hx> = 0
    <Phi_hy> = 0
    <LamType> = 0
    <LamFill> = 1
    <NStrands> = 0
    <WireD> = 0
    <BHPoints> = 0
  <EndBlock>
  <BeginBlock>
    <BlockName> = "Linear Steel"
    <Mu_x> = 1000000
    <Mu_y> = 1000000
    <H_c> = 0
    <H_cAngle> = 0
    <J_re> = 0
    <J_im> = 0
    <Sigma> = 0
    <d_lam> = 0
    <Phi_h> = 0
    <Phi_hx> = 0
    <Phi_hy> = 0
    <LamType> = 0
    <LamFill> = 1
    <NStrands> = 0
    <WireD> = 0
    <BHPoints> = 0
  <EndBlock>
  <BeginBlock>
    <BlockName> = "Copper"
    <Mu_x> = 1
    <Mu_y> = 1
    <H_c> = 0
    <H_cAngle> = 0
    <J_re> = 0
    <J_im> = 0
    <Sigma> = 58
    <d_lam> = 0
    <Phi_h> = 0
    <Phi_hx> = 0
    <Phi_hy> = 0
    <LamType> = 0
    <LamFill> = 1
    <NStrands> = 0
    <WireD> = 0
    <BHPoints> = 0
  <EndBlock>
  <BeginBlock>
    <BlockName> = "NdFeB 40 MGOe"
    <Mu_x> = 1.0489999999999999
    <Mu_y> = 1.0489999999999999
    <H_c> = 979000
    <H_cAngle> = 0
    <J_re> = 0
    <J_im> = 0
    <Sigma> = 0.66700000000000004
    <d_lam> = 0
    <Phi_h> = 0
    <Phi_hx> = 0
    <Phi_hy> = 0
    <LamType> = 0
    <LamFill> = 1
    <NStrands> = 0
    <WireD> = 0
    <BHPoints> = 0
  <EndBlock>
[CircuitProps]  = 3
  <BeginCircuit>
    <CircuitName> = "A"
    <TotalAmps_re> = 0
    <TotalAmps_im> = 0
    <CircuitType> = 1
  <EndCircuit>
  <BeginCircuit>
    <CircuitName> = "B"
    <TotalAmps_re> = 0
    <TotalAmps_im> = 0
    <CircuitType> = 1
  <EndCircuit>
  <BeginCircuit>
    <CircuitName> = "C"
    <TotalAmps_re> = 0
    <TotalAmps_im> = 0
    <CircuitType> = 1
  <EndCircuit>
[NumPoints] = 254
-0.61372420439999997	-9.2950214638999995	0	2
-3.4800122662000001	-8.6408099180000004	0	2
-0.92525351199999994	-10.6599205409	0	2
-3.7915415738	-10.005708995099999	0	2
10.1867658013	-3.2741109492999998	0	2
8.9254093863000001	-2.6666737145999999	0	2
7.6497911932999996	-5.3155221861999999	0	2
8.9111476083000003	-5.9229594209999998	0	2
9.1985423526000005	1.47	0	2
9.1985423526000005	-1.47	0	2
10.598542352600001	1.47	0	2
10.598542352600001	-1.47	0	2
7.7573753506000003	-7.3697440708000004	0	2
6.8844896279999999	-6.2751799954000003	0	2
4.5859050695999999	-8.1082400127999996	0	2
5.4587907922000003	-9.2028040883000006	0	2
-10.598542352600001	-1.47	0	2
-9.1985423526000005	-1.47	0	2
-9.1985423526000005	1.47	0	2
-10.598542352600001	1.47	0	2
3.7915415738	-10.005708995099999	0	2
3.4800122662000001	-8.6408099180000004	0	2
0.61372420439999997	-9.2950214638999995	0	2
0.92525351199999994	-10.6599205409	0	2
-8.9111476083000003	-5.9229594209999998	0	2
-7.6497911932999996	-5.3155221861999999	0	2
-8.9254093863000001	-2.6666737145999999	0	2
-10.1867658013	-3.2741109492999998	0	2
-10.1867658013	3.2741109492999998	0	2
-8.9254093863000001	2.6666737145999999	0	2
-7.6497911932999996	5.3155221861999999	0	2
-8.9111476083000003	5.9229594209999998	0	2
-5.4587907922000003	-9.2028040883000006	0	2
-4.5859050695999999	-8.1082400127999996	0	2
-6.8844896279999999	-6.2751799954000003	0	2
-7.7573753506000003	-7.3697440708000004	0	2
-7.7573753506000003	7.3697440708000004	0	2
-6.8844896279999999	6.2751799954000003	0	2
-4.5859050695999999	8.1082400127999996	0	2
-5.4587907922000003	9.2028040883000006	0	2
-3.7915415738	10.005708995099999	0	2
-3.4800122662000001	8.6408099180000004	0	2
-0.61372420439999997	9.2950214638999995	0	2
-0.92525351199999994	10.6599205409	0	2
0.92525351199999994	10.6599205409	0	2
0.61372420439999997	9.2950214638999995	0	2
3.4800122662000001	8.6408099180000004	0	2
3.7915415738	10.005708995099999	0	2
5.4587907922000003	9.2028040883000006	0	2
4.5859050695999999	8.1082400127999996	0	2
6.8844896279999999	6.2751799954000003	0	2
7.7573753506000003	7.3697440708000004	0	2
8.9111476083000003	5.9229594209999998	0	2
7.6497911932999996	5.3155221861999999	0	2
8.9254093863000001	2.6666737145999999	0	2
10.1867658013	3.2741109492999998	0	2
7.2270367695999997	-3.4508437878999998	0	0
4.0227427756000003	-1.6008437878999999	0	0
7.7441945421999998	-2.8345191544000001	0	0
6.6020367695999997	-4.5333755426	0	0
6.3268628662999999	-5.2894096281999996	0	0
3.3977427755999998	-2.6833755425999999	0	0
2.6833755425999999	-3.3977427755999998	0	0
4.5333755426	-6.6020367695999997	0	0
5.2894096281999996	-6.3268628662999999	0	0
3.4508437878999998	-7.2270367695999997	0	0
2.8345191544000001	-7.7441945421999998	0	0
1.6008437878999999	-4.0227427756000003	0	0
0.625	-4.2842193305	0	0
0.625	-7.9842193305000002	0	0
1.4173316759000001	-8.1239287826000002	0	0
-0.625	-7.9842193305000002	0	0
-1.4173316759000001	-8.1239287826000002	0	0
-0.625	-4.2842193305	0	0
-1.6008437878999999	-4.0227427756000003	0	0
-3.4508437878999998	-7.2270367695999997	0	0
-2.8345191544000001	-7.7441945421999998	0	0
-4.5333755426	-6.6020367695999997	0	0
-5.2894096281999996	-6.3268628662999999	0	0
-2.6833755425999999	-3.3977427755999998	0	0
-3.3977427755999998	-2.6833755425999999	0	0
-6.6020367695999997	-4.5333755426	0	0
-6.3268628662999999	-5.2894096281999996	0	0
-7.2270367695999997	-3.4508437878999998	0	0
-7.7441945421999998	-2.8345191544000001	0	0
-4.0227427756000003	-1.6008437878999999	0	0
-4.2842193305	-0.625	0	0
-7.9842193305000002	-0.625	0	0
-8.1239287826000002	-1.4173316759000001	0	0
-7.9842193305000002	0.625	0	0
-8.1239287826000002	1.4173316759000001	0	0
-4.2842193305	0.625	0	0
-4.0227427756000003	1.6008437878999999	0	0
-7.2270367695999997	3.4508437878999998	0	0
-7.7441945421999998	2.8345191544000001	0	0
-6.6020367695999997	4.5333755426	0	0
-6.3268628662999999	5.2894096281999996	0	0
-3.3977427755999998	2.6833755425999999	0	0
-2.6833755425999999	3.3977427755999998	0	0
-4.5333755426	6.6020367695999997	0	0
-5.2894096281999996	6.3268628662999999	0	0
-3.4508437878999998	7.2270367695999997	0	0
-2.8345191544000001	7.7441945421999998	0	0
-1.6008437878999999	4.0227427756000003	0	0
-0.625	4.2842193305	0	0
-0.625	7.9842193305000002	0	0
-1.4173316759000001	8.1239287826000002	0	0
0.625	7.9842193305000002	0	0
1.4173316759000001	8.1239287826000002	0	0
0.625	4.2842193305	0	0
1.6008437878999999	4.0227427756000003	0	0
3.4508437878999998	7.2270367695999997	0	0
2.8345191544000001	7.7441945421999998	0	0
4.5333755426	6.6020367695999997	0	0
5.2894096281999996	6.3268628662999999	0	0
2.6833755425999999	3.3977427755999998	0	0
3.3977427755999998	2.6833755425999999	0	0
6.6020367695999997	4.5333755426	0	0
6.3268628662999999	5.2894096281999996	0	0
7.2270367695999997	3.4508437878999998	0	0
7.7441945421999998	2.8345191544000001	0	0
4.0227427756000003	1.6008437878999999	0	0
7.9842193305000002	-0.625	0	0
8.1239287826000002	-1.4173316759000001	0	0
4.2842193305	-0.625	0	0
4.2842193305	0.625	0	0
7.9842193305000002	0.625	0	0
8.1239287826000002	1.4173316759000001	0	0
0.80000000000000004	7.7999999999999998	0	0
1.3999999999999999	7.7999999999999998	0	0
0.80000000000000004	5.7999999999999998	0	0
1.3999999999999999	5.7999999999999998	0	0
2.6875644347000001	7.4549981494999997	0	0
3.2071796770000001	7.1549981494999999	0	0
1.6875644347000001	5.7229473419000003	0	0
2.2071796770000001	5.4229473418999996	0	0
-1.3999999999999999	7.7999999999999998	0	0
-0.80000000000000004	7.7999999999999998	0	0
-1.3999999999999999	5.7999999999999998	0	0
-0.80000000000000004	5.7999999999999998	0	0
-3.2071796770000001	7.1549981494999999	0	0
-2.6875644347000001	7.4549981494999997	0	0
-2.2071796770000001	5.4229473418999996	0	0
-1.6875644347000001	5.7229473419000003	0	0
-5.1124355653000002	6.0549981495000003	0	0
-4.5928203229999998	6.3549981495000001	0	0
-4.1124355653000002	4.3229473419	0	0
-3.5928203230000002	4.6229473418999998	0	0
-6.3549981495000001	4.5928203229999998	0	0
-6.0549981495000003	5.1124355653000002	0	0
-4.6229473418999998	3.5928203230000002	0	0
-4.3229473419	4.1124355653000002	0	0
-7.4549981494999997	2.6875644347000001	0	0
-7.1549981494999999	3.2071796770000001	0	0
-5.7229473419000003	1.6875644347000001	0	0
-5.4229473418999996	2.2071796770000001	0	0
-7.7999999999999998	0.80000000000000004	0	0
-7.7999999999999998	1.3999999999999999	0	0
-5.7999999999999998	0.80000000000000004	0	0
-5.7999999999999998	1.3999999999999999	0	0
-7.7999999999999998	-1.3999999999999999	0	0
-7.7999999999999998	-0.80000000000000004	0	0
-5.7999999999999998	-1.3999999999999999	0	0
-5.7999999999999998	-0.80000000000000004	0	0
-7.1549981494999999	-3.2071796770000001	0	0
-7.4549981494999997	-2.6875644347000001	0	0
-5.4229473418999996	-2.2071796770000001	0	0
-5.7229473419000003	-1.6875644347000001	0	0
-6.0549981495000003	-5.1124355653000002	0	0
-6.3549981495000001	-4.5928203229999998	0	0
-4.3229473419	-4.1124355653000002	0	0
-4.6229473418999998	-3.5928203230000002	0	0
-4.5928203229999998	-6.3549981495000001	0	0
-5.1124355653000002	-6.0549981495000003	0	0
-3.5928203230000002	-4.6229473418999998	0	0
-4.1124355653000002	-4.3229473419	0	0
-2.6875644347000001	-7.4549981494999997	0	0
-3.2071796770000001	-7.1549981494999999	0	0
-1.6875644347000001	-5.7229473419000003	0	0
-2.2071796770000001	-5.4229473418999996	0	0
-0.80000000000000004	-7.7999999999999998	0	0
-1.3999999999999999	-7.7999999999999998	0	0
-0.80000000000000004	-5.7999999999999998	0	0
-1.3999999999999999	-5.7999999999999998	0	0
1.3999999999999999	-7.7999999999999998	0	0
0.80000000000000004	-7.7999999999999998	0	0
1.3999999999999999	-5.7999999999999998	0	0
0.80000000000000004	-5.7999999999999998	0	0
3.2071796770000001	-7.1549981494999999	0	0
2.6875644347000001	-7.4549981494999997	0	0
2.2071796770000001	-5.4229473418999996	0	0
1.6875644347000001	-5.7229473419000003	0	0
5.1124355653000002	-6.0549981495000003	0	0
4.5928203229999998	-6.3549981495000001	0	0
4.1124355653000002	-4.3229473419	0	0
3.5928203230000002	-4.6229473418999998	0	0
6.3549981495000001	-4.5928203229999998	0	0
6.0549981495000003	-5.1124355653000002	0	0
4.6229473418999998	-3.5928203230000002	0	0
4.3229473419	-4.1124355653000002	0	0
7.4549981494999997	-2.6875644347000001	0	0
7.1549981494999999	-3.2071796770000001	0	0
5.7229473419000003	-1.6875644347000001	0	0
5.4229473418999996	-2.2071796770000001	0	0
7.7999999999999998	-0.80000000000000004	0	0
7.7999999999999998	-1.3999999999999999	0	0
5.7999999999999998	-0.80000000000000004	0	0
5.7999999999999998	-1.3999999999999999	0	0
7.7999999999999998	1.3999999999999999	0	0
7.7999999999999998	0.80000000000000004	0	0
5.7999999999999998	1.3999999999999999	0	0
5.7999999999999998	0.80000000000000004	0	0
7.1549981494999999	3.2071796770000001	0	0
7.4549981494999997	2.6875644347000001	0	0
5.4229473418999996	2.2071796770000001	0	0
5.7229473419000003	1.6875644347000001	0	0
6.0549981495000003	5.1124355653000002	0	0
6.3549981495000001	4.5928203229999998	0	0
4.3229473419	4.1124355653000002	0	0
4.6229473418999998	3.5928203230000002	0	0
4.5928203229999998	6.3549981495000001	0	0
5.1124355653000002	6.0549981495000003	0	0
3.5928203230000002	4.6229473418999998	0	0
4.1124355653000002	4.3229473419	0	0
11.5	0	0	2
-11.5	0	0	2
10.699999999999999	0	0	2
-10.699999999999999	0	0	2
3	0	0	0
-3	0	0	0
8.4032649766434826	-3.2225979785638565	0	0
6.9924842039990569	-5.6661419552251004	0	0
5.666141955271244	-6.9924842039621353	0	0
3.2225979786120003	-8.4032649766731922	0	0
1.4107807726813471	-8.888739933835101	0	0
-1.4107807726742065	-8.8887399338369644	0	0
-3.2225979785638561	-8.4032649766434808	0	0
-5.6661419552250463	-6.9924842039990027	0	0
-6.9924842039625625	-5.6661419552707191	0	0
-8.4032649766732348	-3.2225979786120296	0	0
-8.8887399338352076	-1.4107807726806787	0	0
-8.8887399338371385	1.4107807726742294	0	0
-8.4032649766432392	3.2225979785644885	0	0
-6.9924842039990489	5.666141955225088	0	0
-5.6661419552707182	6.9924842039625617	0	0
-3.2225979786120229	8.4032649766732206	0	0
-1.4107807726806787	8.8887399338352076	0	0
1.4107807726742105	8.888739933837023	0	0
3.2225979785644885	8.4032649766432392	0	0
5.6661419552250294	6.9924842039989796	0	0
6.9924842039625608	5.6661419552707173	0	0
8.4032649766731637	3.2225979786119994	0	0
8.8887399338352076	1.4107807726806787	0	0
8.8887399338371367	-1.4107807726742343	0	0
[NumSegments] = 198
0	1	-1	0	0	2
2	0	-1	0	0	2
1	3	-1	0	0	2
4	5	-1	0	0	2
6	7	-1	0	0	2
5	6	-1	0	0	2
8	9	-1	0	0	2
10	8	-1	0	0	2
9	11	-1	0	0	2
12	13	-1	0	0	2
14	15	-1	0	0	2
13	14	-1	0	0	2
16	17	-1	0	0	2
18	19	-1	0	0	2
17	18	-1	0	0	2
20	21	-1	0	0	2
22	23	-1	0	0	2
21	22	-1	0	0	2
24	25	-1	0	0	2
26	27	-1	0	0	2
25	26	-1	0	0	2
28	29	-1	0	0	2
30	31	-1	0	0	2
29	30	-1	0	0	2
32	33	-1	0	0	2
34	35	-1	0	0	2
33	34	-1	0	0	2
36	37	-1	0	0	2
38	39	-1	0	0	2
37	38	-1	0	0	2
40	41	-1	0	0	2
42	43	-1	0	0	2
41	42	-1	0	0	2
44	45	-1	0	0	2
46	47	-1	0	0	2
45	46	-1	0	0	2
48	49	-1	0	0	2
49	50	-1	0	0	2
50	51	-1	0	0	2
52	53	-1	0	0	2
54	55	-1	0	0	2
53	54	-1	0	0	2
56	57	-1	0	0	0
58	56	-1	0	0	0
59	60	-1	0	0	0
61	59	-1	0	0	0
62	61	-1	0	0	0
63	62	-1	0	0	0
64	63	-1	0	0	0
65	66	-1	0	0	0
67	65	-1	0	0	0
68	67	-1	0	0	0
69	68	-1	0	0	0
70	69	-1	0	0	0
71	72	-1	0	0	0
73	71	-1	0	0	0
74	73	-1	0	0	0
75	74	-1	0	0	0
76	75	-1	0	0	0
77	78	-1	0	0	0
79	77	-1	0	0	0
80	79	-1	0	0	0
81	80	-1	0	0	0
82	81	-1	0	0	0
83	84	-1	0	0	0
85	83	-1	0	0	0
86	85	-1	0	0	0
87	86	-1	0	0	0
88	87	-1	0	0	0
89	90	-1	0	0	0
91	89	-1	0	0	0
92	91	-1	0	0	0
93	92	-1	0	0	0
94	93	-1	0	0	0
95	96	-1	0	0	0
97	95	-1	0	0	0
98	97	-1	0	0	0
99	98	-1	0	0	0
100	99	-1	0	0	0
101	102	-1	0	0	0
103	101	-1	0	0	0
104	103	-1	0	0	0
105	104	-1	0	0	0
106	105	-1	0	0	0
107	108	-1	0	0	0
109	107	-1	0	0	0
110	109	-1	0	0	0
111	110	-1	0	0	0
112	111	-1	0	0	0
113	114	-1	0	0	0
115	113	-1	0	0	0
116	115	-1	0	0	0
117	116	-1	0	0	0
118	117	-1	0	0	0
119	120	-1	0	0	0
121	119	-1	0	0	0
122	123	-1	0	0	0
124	122	-1	0	0	0
57	124	-1	0	0	0
125	121	-1	0	0	0
126	125	-1	0	0	0
127	126	-1	0	0	0
128	129	-1	0	0	0
130	128	-1	0	0	0
131	130	-1	0	0	0
129	131	-1	0	0	0
132	133	-1	0	0	0
134	132	-1	0	0	0
135	134	-1	0	0	0
133	135	-1	0	0	0
136	137	-1	0	0	0
138	136	-1	0	0	0
139	138	-1	0	0	0
137	139	-1	0	0	0
140	141	-1	0	0	0
142	140	-1	0	0	0
143	142	-1	0	0	0
141	143	-1	0	0	0
144	145	-1	0	0	0
146	144	-1	0	0	0
147	146	-1	0	0	0
145	147	-1	0	0	0
148	149	-1	0	0	0
150	148	-1	0	0	0
151	150	-1	0	0	0
149	151	-1	0	0	0
152	153	-1	0	0	0
154	152	-1	0	0	0
155	154	-1	0	0	0
153	155	-1	0	0	0
156	157	-1	0	0	0
158	156	-1	0	0	0
159	158	-1	0	0	0
157	159	-1	0	0	0
160	161	-1	0	0	0
162	160	-1	0	0	0
163	162	-1	0	0	0
161	163	-1	0	0	0
164	165	-1	0	0	0
166	164	-1	0	0	0
167	166	-1	0	0	0
165	167	-1	0	0	0
168	169	-1	0	0	0
170	168	-1	0	0	0
171	170	-1	0	0	0
169	171	-1	0	0	0
172	173	-1	0	0	0
174	172	-1	0	0	0
175	174	-1	0	0	0
173	175	-1	0	0	0
176	177	-1	0	0	0
178	176	-1	0	0	0
179	178	-1	0	0	0
177	179	-1	0	0	0
180	181	-1	0	0	0
182	180	-1	0	0	0
183	182	-1	0	0	0
181	183	-1	0	0	0
184	185	-1	0	0	0
186	184	-1	0	0	0
187	186	-1	0	0	0
185	187	-1	0	0	0
188	189	-1	0	0	0
190	188	-1	0	0	0
191	190	-1	0	0	0
189	191	-1	0	0	0
192	193	-1	0	0	0
194	192	-1	0	0	0
195	194	-1	0	0	0
193	195	-1	0	0	0
196	197	-1	0	0	0
198	196	-1	0	0	0
199	198	-1	0	0	0
197	199	-1	0	0	0
200	201	-1	0	0	0
202	200	-1	0	0	0
203	202	-1	0	0	0
201	203	-1	0	0	0
204	205	-1	0	0	0
206	204	-1	0	0	0
207	206	-1	0	0	0
205	207	-1	0	0	0
208	209	-1	0	0	0
210	208	-1	0	0	0
211	210	-1	0	0	0
209	211	-1	0	0	0
212	213	-1	0	0	0
214	212	-1	0	0	0
215	214	-1	0	0	0
213	215	-1	0	0	0
216	217	-1	0	0	0
218	216	-1	0	0	0
219	218	-1	0	0	0
217	219	-1	0	0	0
220	221	-1	0	0	0
222	220	-1	0	0	0
223	222	-1	0	0	0
221	223	-1	0	0	0
[NumArcSegments] = 70
224	225	180	5	1	0	2
225	224	180	5	1	0	2
226	10	7.8964501711787989	5	0	0	2
10	55	9.921385371865572	5	0	0	2
55	52	15.792900342704645	5	0	0	2
52	51	9.9213853717730593	5	0	0	2
51	48	15.792900342254047	5	0	0	2
48	47	9.921385371876239	5	0	0	2
47	44	15.792900342223625	5	0	0	2
44	43	9.9213853722661334	5	0	0	2
43	40	15.792900342247121	5	0	0	2
40	39	9.921385371882419	5	0	0	2
39	36	15.792900342217434	5	0	0	2
36	31	9.9213853717878244	5	0	0	2
31	28	15.792900342676404	5	0	0	2
28	19	9.9213853718655667	5	0	0	2
19	227	7.8964501711812645	5	0	0	2
227	16	7.8964501711720834	5	0	0	2
16	27	9.921385371861513	5	0	0	2
27	24	15.792900342698159	5	0	0	2
24	35	9.9213853717805414	5	0	0	2
35	32	15.792900342253619	5	0	0	2
32	3	9.9213853718830105	5	0	0	2
3	2	15.792900342217605	5	0	0	2
2	23	9.9213853722595502	5	0	0	2
23	20	15.792900342236988	5	0	0	2
20	15	9.9213853718841332	5	0	0	2
15	12	15.792900342227057	5	0	0	2
12	7	9.9213853717914695	5	0	0	2
7	4	15.792900342682328	5	0	0	2
4	11	9.9213853718588592	5	0	0	2
11	226	7.896450171193087	5	0	0	2
228	229	180	5	0	0	0
229	228	180	5	0	0	0
230	58	160.98149700319999	5	0	0	0
231	230	18.037005993400044	5	0	0	0
60	231	160.98149700329998	5	0	0	0
232	64	160.98149700319999	5	0	0	0
233	232	18.037005993400044	5	0	0	0
66	233	160.98149700329998	5	0	0	0
234	70	160.98149700319999	5	0	0	0
235	234	18.037005993400044	5	0	0	0
72	235	160.98149700329998	5	0	0	0
236	76	160.98149700319999	5	0	0	0
237	236	18.037005993399987	5	0	0	0
78	237	160.98149700330001	5	0	0	0
238	82	160.98149700330001	5	0	0	0
239	238	18.037005993399987	5	0	0	0
84	239	160.98149700330001	5	0	0	0
240	88	160.98149700330001	5	0	0	0
241	240	18.037005993399987	5	0	0	0
90	241	160.98149700330001	5	0	0	0
242	94	160.98149700330001	5	0	0	0
243	242	18.037005993399987	5	0	0	0
96	243	160.98149700329998	5	0	0	0
244	100	160.98149700330001	5	0	0	0
245	244	18.037005993399987	5	0	0	0
102	245	160.98149700329998	5	0	0	0
246	106	160.98149700330001	5	0	0	0
247	246	18.037005993399987	5	0	0	0
108	247	160.98149700329998	5	0	0	0
248	112	160.98149700330001	5	0	0	0
249	248	18.037005993399994	5	0	0	0
114	249	160.98149700329998	5	0	0	0
250	118	160.98149700330001	5	0	0	0
251	250	18.037005993400001	5	0	0	0
120	251	160.98149700329998	5	0	0	0
252	127	160.98149700330001	5	0	0	0
253	252	18.037005993400044	5	0	0	0
123	253	160.98149700329998	5	0	0	0
[NumHoles] = 0
[NumBlockLabels] = 42
10.800000000000001	2.7000000000000002	3	-1	0	0	2	1	0
9.8000000000000007	-0.10000000000000001	5	-1	0	0	2	1	0
9.0999999999999996	4.5	5	-1	0	-154.30000000000001	2	1	0
6.2999999999999998	7.7000000000000002	5	-1	0	51.399999999999999	2	1	0
1.8999999999999999	9.5	5	-1	0	-102.90000000000001	2	1	0
-2.6000000000000001	9.3000000000000007	5	-1	0	102.90000000000001	2	1	0
-5.9000000000000004	8	5	-1	0	-51.399999999999999	2	1	0
-8.6999999999999993	4.4000000000000004	5	-1	0	154.30000000000001	2	1	0
-10.199999999999999	0.40000000000000002	5	-1	0	0	2	1	0
-9	-4.7999999999999998	5	-1	0	205.69999999999999	2	1	0
-6.5	-7.2999999999999998	5	-1	0	51.399999999999999	2	1	0
-2.6000000000000001	-9.6999999999999993	5	-1	0	257.10000000000002	2	1	0
2.2000000000000002	-9.6999999999999993	5	-1	0	102.90000000000001	2	1	0
5.7000000000000002	-7.9000000000000004	5	-1	0	308.60000000000002	2	1	0
8.5999999999999996	-4.5	5	-1	0	154.30000000000001	2	1	0
1.3	3.2000000000000002	3	-1	0	0	0	1	0
-0.59999999999999998	0.59999999999999998	1	-1	0	0	0	1	0
5.25	4.3200000000000003	4	-1	2	0	0	14	0
4.4000000000000004	5.4400000000000004	4	-1	2	0	0	14	0
2.5	6.5599999999999996	4	-1	2	0	0	-14	0
1.05	6.8499999999999996	4	-1	3	0	0	14	0
-1.1499999999999999	6.79	4	-1	3	0	0	-14	0
-2.3700000000000001	6.3899999999999997	4	-1	3	0	0	-14	0
-4.3399999999999999	5.4000000000000004	4	-1	3	0	0	14	0
-5.3399999999999999	4.2400000000000002	4	-1	1	0	0	-14	0
-6.3300000000000001	2.3500000000000001	4	-1	1	0	0	14	0
-6.6200000000000001	1.05	4	-1	1	0	0	14	0
-6.7699999999999996	-1.1100000000000001	4	-1	1	0	0	-14	0
-6.4800000000000004	-2.46	4	-1	2	0	0	14	0
-5.3099999999999996	-4.3200000000000003	4	-1	2	0	0	-14	0
-4.3799999999999999	-5.29	4	-1	2	0	0	-14	0
-2.46	-6.4100000000000001	4	-1	2	0	0	14	0
-1.1699999999999999	-6.7400000000000002	4	-1	3	0	0	-14	0
1.1499999999999999	-6.79	4	-1	3	0	0	14	0
2.54	-6.5800000000000001	4	-1	3	0	0	14	0
4.3799999999999999	-5.3799999999999999	4	-1	3	0	0	-14	0
5.2699999999999996	-4.4000000000000004	4	-1	1	0	0	14	0
6.3099999999999996	-2.46	4	-1	1	0	0	-14	0
6.6200000000000001	-1.0700000000000001	4	-1	1	0	0	-14	0
6.6600000000000001	1.0900000000000001	4	-1	1	0	0	14	0
6.3899999999999997	2.46	4	-1	2	0	0	-14	0
3.5	3.6600000000000001	1	-1	0	0	0	1	0
