[Format]      =  4.0
[Frequency]   =  0
[Precision]   =  1e-008
[MinAngle]    =  30
[Depth]       =  1
[LengthUnits] =  inches
[ProblemType] =  planar
[Coordinates] =  cartesian
[ACSolver]    =  0
[PrevSoln]    =  ""
[Comment]     =  "Add comments here."
[PointProps]   = 0
[BdryProps]   = 0
[BlockProps]  = 3
  <BeginBlock>
    <BlockName> = "Pure Iron"
    <Mu_x> = 14872
    <Mu_y> = 14872
    <H_c> = 0
    <H_cAngle> = 0
    <J_re> = 0
    <J_im> = 0
    <Sigma> = 10.44
    <d_lam> = 0
    <Phi_h> = 0
    <Phi_hx> = 0
    <Phi_hy> = 0
    <LamType> = 0
    <LamFill> = 1
    <NStrands> = 0
    <WireD> = 0
    <BHPoints> = 21
      0	0
      0.22706499999999999	13.898400000000001
      0.45412999999999998	27.796700000000001
      0.68119499999999999	42.397399999999998
      0.90825999999999996	61.415700000000001
      1.13533	82.382400000000004
      1.36239	144.66900000000001
      1.58935	897.75999999999999
      1.81236	4581.7399999999998
      2.01004	17736.200000000001
      2.1331600000000002	41339.300000000003
      2.1999900000000001	68321.800000000003
      2.2547899999999998	95685.5
      2.2999299999999998	123355
      2.3425099999999999	151083
      2.3787600000000002	178954
      2.4150100000000001	206825
      2.45126	234696
      2.4874999999999998	262568
      2.5237500000000002	290439
      2.5600000000000001	318310
  <EndBlock>
  <BeginBlock>
    <BlockName> = "Ceramic 8"
    <Mu_x> = 1.4384600000000001
    <Mu_y> = 1.4384600000000001
    <H_c> = 233568
    <H_cAngle> = 0
    <J_re> = 0
    <J_im> = 0
    <Sigma> = 0
    <d_lam> = 0
    <Phi_h> = 0
    <Phi_hx> = 0
    <Phi_hy> = 0
    <LamType> = 0
    <LamFill> = 1
    <NStrands> = 0
    <WireD> = 0
    <BHPoints> = 9
      0	0
      0.040029000000000002	1488.09925
      0.069106000000000001	5665.9179999999997
      0.087951000000000001	15231.1335
      0.11024	30247.407749999998
      0.15995000000000001	63009.464500000002
      0.24912000000000001	128493.78925
      0.32113999999999998	180339.326275
      0.39145000000000002	233567.92025
  <EndBlock>
  <BeginBlock>
    <BlockName> = "Air"
    <Mu_x> = 1
    <Mu_y> = 1
    <H_c> = 0
    <H_cAngle> = 0
    <J_re> = 0
    <J_im> = 0
    <Sigma> = 0
    <d_lam> = 0
    <Phi_h> = 0
    <Phi_hx> = 0
    <Phi_hy> = 0
    <LamType> = 0
    <LamFill> = 1
    <NStrands> = 0
    <WireD> = 0
    <BHPoints> = 0
  <EndBlock>
[CircuitProps]  = 0
[NumPoints] = 54
-5	-40	0	1
-5	-45	0	1
5	-45	0	1
5	-40	0	1
15.669873000000001	-37.141016	0	1
18.169872999999999	-41.471142999999998	0	1
26.830127000000001	-36.471142999999998	0	1
24.330127000000001	-32.141016	0	1
32.141016	-24.330127000000001	0	1
36.471142999999998	-26.830127000000001	0	1
41.471142999999998	-18.169872999999999	0	1
37.141016	-15.669873000000001	0	1
40	-5	0	1
45	-5	0	1
45	5	0	1
40	5	0	1
37.141016	15.669873000000001	0	1
41.471142999999998	18.169872999999999	0	1
36.471142999999998	26.830127000000001	0	1
32.141016	24.330127000000001	0	1
24.330127000000001	32.141016	0	1
26.830127000000001	36.471142999999998	0	1
18.169872999999999	41.471142999999998	0	1
15.669873000000001	37.141016	0	1
5	40	0	1
5	45	0	1
-5	45	0	1
-5	40	0	1
-15.669873000000001	37.141016	0	1
-18.169872999999999	41.471142999999998	0	1
-26.830127000000001	36.471142999999998	0	1
-24.330127000000001	32.141016	0	1
-32.141016	24.330127000000001	0	1
-36.471142999999998	26.830127000000001	0	1
-41.471142999999998	18.169872999999999	0	1
-37.141016	15.669873000000001	0	1
-40	5	0	1
-45	5	0	1
-45	-5	0	1
-40	-5	0	1
-37.141016	-15.669873000000001	0	1
-41.471142999999998	-18.169872999999999	0	1
-36.471142999999998	-26.830127000000001	0	1
-32.141016	-24.330127000000001	0	1
-24.330127000000001	-32.141016	0	1
-26.830127000000001	-36.471142999999998	0	1
-18.169872999999999	-41.471142999999998	0	1
-15.669873000000001	-37.141016	0	1
-5	-46	0	0
5	-46	0	0
5	-56	0	0
-5	-56	0	0
30	0	0	1
-30	3.67394039744206e-015	0	1
[NumSegments] = 52
0	1	-1	0	0	1
1	2	-1	0	0	1
2	3	-1	0	0	1
4	5	-1	0	0	1
5	6	-1	0	0	1
6	7	-1	0	0	1
8	9	-1	0	0	1
9	10	-1	0	0	1
10	11	-1	0	0	1
12	13	-1	0	0	1
13	14	-1	0	0	1
14	15	-1	0	0	1
16	17	-1	0	0	1
17	18	-1	0	0	1
18	19	-1	0	0	1
20	21	-1	0	0	1
21	22	-1	0	0	1
22	23	-1	0	0	1
24	25	-1	0	0	1
25	26	-1	0	0	1
26	27	-1	0	0	1
28	29	-1	0	0	1
29	30	-1	0	0	1
30	31	-1	0	0	1
32	33	-1	0	0	1
33	34	-1	0	0	1
34	35	-1	0	0	1
36	37	-1	0	0	1
37	38	-1	0	0	1
38	39	-1	0	0	1
40	41	-1	0	0	1
41	42	-1	0	0	1
42	43	-1	0	0	1
44	45	-1	0	0	1
45	46	-1	0	0	1
46	47	-1	0	0	1
3	4	-1	0	0	1
7	8	-1	0	0	1
11	12	-1	0	0	1
15	16	-1	0	0	1
19	20	-1	0	0	1
23	24	-1	0	0	1
27	28	-1	0	0	1
31	32	-1	0	0	1
35	36	-1	0	0	1
39	40	-1	0	0	1
43	44	-1	0	0	1
47	0	-1	0	0	1
48	49	-1	0	0	2
49	50	-1	0	0	2
50	51	-1	0	0	2
51	48	-1	0	0	2
[NumArcSegments] = 2
52	53	180	5	0	0	1
53	52	180	5	0	0	1
[NumHoles] = 0
[NumBlockLabels] = 4
14	34	3	-1	0	0	0	1	0
0	-52	2	-1	0	90	0	1	0
-1.2	-0.10000000000000001	3	-1	0	0	0	1	0
74.299999999999997	2.1000000000000001	3	-1	0	0	0	1	0
