[Format]      =  4.0
[Frequency]   =  0
[Precision]   =  1e-008
[MinAngle]    =  30
[Depth]       =  0.29999999999999999
[LengthUnits] =  inches
[ProblemType] =  planar
[Coordinates] =  cartesian
[ACSolver]    =  0
[PrevType]    =  1
[PrevSoln]    =  ""
[Comment]     =  "Add comments here."
[PointProps]   = 0
[BdryProps]   = 1
  <BeginBdry>
    <BdryName> = "A=0"
    <BdryType> = 0
    <A_0> = 0
    <A_1> = 0
    <A_2> = 0
    <Phi> = 0
    <c0> = 0
    <c0i> = 0
    <c1> = 0
    <c1i> = 0
    <Mu_ssd> = 0
    <Sigma_ssd> = 0
  <EndBdry>
[BlockProps]  = 4
  <BeginBlock>
    <BlockName> = "Magnet"
    <Mu_x> = 1.0277000000000001
    <Mu_y> = 1.0277000000000001
    <H_c> = 1007000
    <H_cAngle> = 0
    <J_re> = 0
    <J_im> = 0
    <Sigma> = 0.55600000000000005
    <d_lam> = 0
    <Phi_h> = 0
    <Phi_hx> = 0
    <Phi_hy> = 0
    <LamType> = 0
    <LamFill> = 1
    <NStrands> = 0
    <WireD> = 0
    <BHPoints> = 0
  <EndBlock>
  <BeginBlock>
    <BlockName> = "Air"
    <Mu_x> = 1
    <Mu_y> = 1
    <H_c> = 0
    <H_cAngle> = 0
    <J_re> = 0
    <J_im> = 0
    <Sigma> = 0
    <d_lam> = 0
    <Phi_h> = 0
    <Phi_hx> = 0
    <Phi_hy> = 0
    <LamType> = 0
    <LamFill> = 1
    <NStrands> = 0
    <WireD> = 0
    <BHPoints> = 0
  <EndBlock>
  <BeginBlock>
    <BlockName> = "M-19 Steel"
    <Mu_x> = 4416
    <Mu_y> = 4416
    <H_c> = 0
    <H_cAngle> = 0
    <J_re> = 0
    <J_im> = 0
    <Sigma> = 1.8999999999999999
    <d_lam> = 0.35560000000000003
    <Phi_h> = 0
    <Phi_hx> = 0
    <Phi_hy> = 0
    <LamType> = 0
    <LamFill> = 0.94999999999999996
    <NStrands> = 0
    <WireD> = 0
    <BHPoints> = 47
      0	0
      0.050000000000000003	15.120714
      0.10000000000000001	22.718292000000002
      0.14999999999999999	27.842732999999999
      0.20000000000000001	31.871434000000001
      0.25	35.365043999999997
      0.29999999999999999	38.600588000000002
      0.34999999999999998	41.736201999999999
      0.40000000000000002	44.873978999999999
      0.45000000000000001	48.087806999999998
      0.5	51.437235999999999
      0.55000000000000004	54.975220999999998
      0.59999999999999998	58.752992999999996
      0.65000000000000002	62.823644000000002
      0.69999999999999996	67.245284999999996
      0.75	72.084406000000001
      0.80000000000000004	77.420100000000005
      0.84999999999999998	83.350020999999998
      0.90000000000000002	89.999611999999999
      0.94999999999999996	97.537352999999996
      1	106.20140600000001
      1.05	116.34846400000001
      1.1000000000000001	128.54732899999999
      1.1499999999999999	143.76543100000001
      1.2	163.75416899999999
      1.25	191.86815799999999
      1.3	234.833507
      1.3500000000000001	306.50976900000001
      1.3999999999999999	435.255202
      1.45	674.911968
      1.5	1108.3255690000001
      1.55	1813.085468
      1.6000000000000001	2801.2174209999998
      1.6499999999999999	4053.6531169999998
      1.7	5591.10689
      1.75	7448.318413
      1.8	9708.81567
      1.8500000000000001	12486.931615
      1.8999999999999999	16041.483644
      1.95	21249.420623999998
      2	31313.495878000002
      2.0499999999999998	53589.446877000002
      2.1000000000000001	88477.484601000004
      2.1499999999999999	124329.41054
      2.2000000000000002	159968.5693
      2.25	197751.604272
      2.2999999999999998	234024.75134700001
  <EndBlock>
  <BeginBlock>
    <BlockName> = "Wire"
    <Mu_x> = 1
    <Mu_y> = 1
    <H_c> = 0
    <H_cAngle> = 0
    <J_re> = 0
    <J_im> = 0
    <Sigma> = 58
    <d_lam> = 0
    <Phi_h> = 0
    <Phi_hx> = 0
    <Phi_hy> = 0
    <LamType> = 3
    <LamFill> = 1
    <NStrands> = 1
    <WireD> = 0.45466985972222002
    <BHPoints> = 0
  <EndBlock>
[CircuitProps]  = 3
  <BeginCircuit>
    <CircuitName> = "A"
    <TotalAmps_re> = 0
    <TotalAmps_im> = 0
    <CircuitType> = 1
  <EndCircuit>
  <BeginCircuit>
    <CircuitName> = "B"
    <TotalAmps_re> = 0
    <TotalAmps_im> = 0
    <CircuitType> = 1
  <EndCircuit>
  <BeginCircuit>
    <CircuitName> = "C"
    <TotalAmps_re> = 0
    <TotalAmps_im> = 0
    <CircuitType> = 1
  <EndCircuit>
[NumPoints] = 212
0.70170943553395193	0.44868682628602152	0	10
0.81345299778455815	0.17891400279272576	0	10
0.75992430897693009	0.47280021639793635	0	10
0.87166787122753642	0.20302739290464059	0	10
0.4765899705197329	0.68306515062620488	0	10
0.68306515062620476	0.47658997051973301	0	10
0.52114570568744933	0.72762088579392126	0	10
0.72762088579392126	0.52114570568744945	0	10
0.17891400279272579	0.81345299778455826	0	10
0.44868682628602158	0.70170943553395193	0	10
0.20302739290464056	0.8716678712275362	0	10
0.47280021639793646	0.75992430897693009	0	10
-0.14600000000000005	0.81999999999999984	0	10
0.14599999999999996	0.81999999999999984	0	10
-0.14599999999999996	0.88301132495568824	0	10
0.14600000000000013	0.88301132495568835	0	10
-0.44868682628602141	0.70170943553395193	0	10
-0.17891400279272573	0.81345299778455815	0	10
-0.47280021639793623	0.75992430897693009	0	10
-0.20302739290464056	0.87166787122753642	0	10
-0.68306515062620488	0.47658997051973295	0	10
-0.47658997051973295	0.68306515062620488	0	10
-0.72762088579392126	0.52114570568744933	0	10
-0.52114570568744933	0.72762088579392126	0	10
-0.81345299778455826	0.17891400279272579	0	10
-0.70170943553395193	0.44868682628602158	0	10
-0.8716678712275362	0.20302739290464056	0	10
-0.75992430897693009	0.47280021639793646	0	10
-0.81999999999999984	-0.14600000000000005	0	10
-0.81999999999999984	0.14599999999999996	0	10
-0.88301132495568824	-0.14599999999999996	0	10
-0.88301132495568835	0.14600000000000013	0	10
-0.70170943553395193	-0.44868682628602141	0	10
-0.81345299778455815	-0.17891400279272568	0	10
-0.75992430897693009	-0.47280021639793623	0	10
-0.87166787122753642	-0.2030273929046405	0	10
-0.47658997051973295	-0.68306515062620488	0	10
-0.68306515062620488	-0.4765899705197329	0	10
-0.52114570568744933	-0.72762088579392126	0	10
-0.72762088579392126	-0.52114570568744933	0	10
-0.17891400279272579	-0.81345299778455826	0	10
-0.44868682628602158	-0.70170943553395193	0	10
-0.20302739290464067	-0.87166787122753631	0	10
-0.47280021639793657	-0.7599243089769302	0	10
0.14599999999999999	-0.82000000000000006	0	10
-0.14600000000000007	-0.81999999999999984	0	10
0.14599999999999988	-0.88301132495568824	0	10
-0.14600000000000024	-0.88301132495568835	0	10
0.44868682628602136	-0.70170943553395193	0	10
0.17891400279272565	-0.81345299778455815	0	10
0.47280021639793612	-0.7599243089769302	0	10
0.20302739290464045	-0.87166787122753653	0	10
0.68306515062620488	-0.47658997051973306	0	10
0.4765899705197329	-0.68306515062620488	0	10
0.72762088579392115	-0.52114570568744945	0	10
0.52114570568744922	-0.72762088579392137	0	10
0.81345299778455815	-0.17891400279272585	0	10
0.70170943553395193	-0.44868682628602152	0	10
0.8716678712275362	-0.20302739290464084	0	10
0.75992430897693009	-0.47280021639793657	0	10
0.81999999999999995	0.14599999999999988	0	10
0.81999999999999984	-0.14600000000000019	0	10
0.88301132495568835	0.14599999999999982	0	10
0.88301132495568835	-0.14600000000000024	0	10
0.65826416691429179	0.27266194556012646	0	10
-0.65826416691429179	-0.27266194556012641	0	10
1.1879999999999999	0	0	0
-1.1879999999999999	0	0	0
-0.82191285702669237	-0.474531609254775	0	0
1.0911669903375263	-0.19240218085495878	0	0
0.93464481568692459	-0.16480309838489512	0	0
1.0911669903375265	0.19240218085495839	0	0
0.9346448156869247	0.16480309838489479	0	0
0.90602152292315885	0.085000000000000006	0	0
1.1047348098073131	0.085000000000000006	0	0
0.90602152292315885	-0.085000000000000006	0	0
1.1047348098073131	-0.085000000000000006	0	0
0.880453451546785	0.23000373835951723	0	0
0.82231002718142121	0.38975148389312164	0	0
0.74868969980483546	0.5172656313792221	0	0
0.63941580615812377	0.64749318670944844	0	0
0.52662292078325679	0.74213765522692066	0	0
0.37939860213990223	0.82713765522692062	0	0
0.24103764538866124	0.87749692506896571	0	0
0.073620327376585859	0.90701711527234385	0	0
-0.073620327376585776	0.90701711527234385	0	0
-0.24103764538866115	0.87749692506896571	0	0
-0.3793986021399019	0.82713765522692073	0	0
-0.52662292078325645	0.74213765522692077	0	0
-0.63941580615812366	0.64749318670944866	0	0
-0.74868969980483535	0.51726563137922232	0	0
-0.8223100271814211	0.38975148389312175	0	0
-0.88045345154678489	0.23000373835951735	0	0
-0.90602152292315885	0.085000000000000117	0	0
-0.90602152292315885	-0.084999999999999895	0	0
-0.88045345154678489	-0.23000373835951718	0	0
-0.82231002718142132	-0.38975148389312164	0	0
-0.74868969980483546	-0.5172656313792221	0	0
-0.63941580615812377	-0.64749318670944844	0	0
-0.52662292078325712	-0.74213765522692032	0	0
-0.37939860213990256	-0.82713765522692051	0	0
-0.24103764538866118	-0.87749692506896571	0	0
-0.073620327376585804	-0.90701711527234385	0	0
0.073620327376585457	-0.90701711527234397	0	0
0.24103764538866085	-0.87749692506896582	0	0
0.37939860213990223	-0.82713765522692062	0	0
0.52662292078325679	-0.74213765522692066	0	0
0.63941580615812355	-0.64749318670944866	0	0
0.74868969980483524	-0.51726563137922255	0	0
0.82231002718142132	-0.38975148389312153	0	0
0.88045345154678489	-0.23000373835951712	0	0
1.0090394365185744	0.45771543075395482	0	0
1.067182860883938	0.29796768522035033	0	0
0.79163901534963743	0.77522362539866951	0	0
0.90091290899634913	0.64499607006844317	0	0
0.47875524558197935	0.99922840973810323	0	0
0.62597956422533396	0.91422840973810326	0	0
0.10812652752222521	1.102711500822398	0	0
0.27554384553430056	1.0731913106190198	0	0
-0.27554384553430045	1.0731913106190198	0	0
-0.10812652752222507	1.102711500822398	0	0
-0.62597956422533363	0.91422840973810349	0	0
-0.47875524558197902	0.99922840973810345	0	0
-0.90091290899634902	0.64499607006844339	0	0
-0.79163901534963732	0.77522362539866974	0	0
-1.0671828608839378	0.29796768522035055	0	0
-1.0090394365185742	0.45771543075395504	0	0
-1.1047348098073131	-0.084999999999999867	0	0
-1.1047348098073131	0.085000000000000145	0	0
-1.0090394365185744	-0.45771543075395471	0	0
-1.067182860883938	-0.29796768522035033	0	0
-0.79163901534963743	-0.77522362539866951	0	0
-0.90091290899634913	-0.64499607006844317	0	0
-0.47875524558197974	-0.99922840973810301	0	0
-0.6259795642253343	-0.91422840973810304	0	0
-0.1081265275222251	-1.102711500822398	0	0
-0.27554384553430045	-1.0731913106190198	0	0
0.27554384553430011	-1.0731913106190201	0	0
0.10812652752222469	-1.1027115008223982	0	0
0.62597956422533396	-0.91422840973810326	0	0
0.47875524558197935	-0.99922840973810323	0	0
0.90091290899634879	-0.64499607006844362	0	0
0.7916390153496371	-0.77522362539866974	0	0
1.067182860883938	-0.29796768522035022	0	0
1.0090394365185744	-0.45771543075395471	0	0
0.9595561473931582	0.5539999999999996	0	0
0.71220867153268586	0.84877724297582713	0	0
0.37895831880484143	1.0411794238307863	0	0
4.9960036108132044e-016	1.1079999999999999	0	0
-0.37895831880484049	1.0411794238307863	0	0
-0.71220867153268497	0.84877724297582802	0	0
-0.95955614739315753	0.5540000000000006	0	0
-1.0911669903375263	0.19240218085495941	0	0
-1.0911669903375265	-0.19240218085495825	0	0
-0.95955614739315831	-0.55399999999999949	0	0
-0.71220867153268586	-0.84877724297582713	0	0
-0.37895831880484182	-1.0411794238307861	0	0
-4.163336342344337e-016	-1.1079999999999999	0	0
0.3789583188048401	-1.0411794238307868	0	0
0.7122086715326853	-0.84877724297582779	0	0
0.95955614739315742	-0.55400000000000071	0	0
0.82191285702669259	0.47453160925477489	0	0
0.61004607766716801	0.72702460470785324	0	0
0.32459873801975736	0.89182770309274861	0	0
4.4408920985006262e-016	0.94906321850955044	0	0
-0.32459873801975653	0.89182770309274884	0	0
-0.61004607766716723	0.72702460470785391	0	0
-0.82191285702669203	0.47453160925477578	0	0
-0.93464481568692448	0.16480309838489568	0	0
-0.9346448156869247	-0.16480309838489468	0	0
-0.61004607766716801	-0.72702460470785324	0	0
-0.32459873801975769	-0.89182770309274839	0	0
-3.6082248300317588e-016	-0.94906321850955044	0	0
0.32459873801975625	-0.89182770309274895	0	0
0.61004607766716756	-0.72702460470785368	0	0
0.82191285702669203	-0.47453160925477589	0	0
0.081034189810958918	0.94906321850955044	0	0
-0.081034189810958834	0.94906321850955044	0	0
-0.40074596821647951	0.86411237787932516	0	0
-0.2484515078230341	0.91954302830617229	0	0
-0.67212186847450117	0.67493683153638195	0	0
-0.54797028685983407	0.77911237787932508	0	0
-0.86242995193217165	0.40435394230339489	0	0
-0.78139576212121276	0.54470927620615583	0	0
-0.94871625507631374	0.085000000000000075	0	0
-0.92057337629753544	0.24460619676979042	0	0
-0.92057337629753544	-0.24460619676979026	0	0
-0.94871625507631374	-0.084999999999999909	0	0
-0.78139576212121298	-0.5447092762061555	0	0
-0.86242995193217176	-0.40435394230339444	0	0
-0.54797028685983429	-0.77911237787932497	0	0
-0.67212186847450139	-0.67493683153638184	0	0
-0.24845150782303438	-0.91954302830617218	0	0
-0.40074596821647979	-0.86411237787932493	0	0
0.081034189810958723	-0.94906321850955044	0	0
-0.081034189810959029	-0.94906321850955044	0	0
0.40074596821647951	-0.86411237787932516	0	0
0.2484515078230341	-0.91954302830617229	0	0
0.67212186847450117	-0.67493683153638195	0	0
0.54797028685983407	-0.77911237787932508	0	0
0.86242995193217165	-0.40435394230339522	0	0
0.78139576212121264	-0.54470927620615617	0	0
0.94871625507631374	-0.084999999999999992	0	0
0.92057337629753544	-0.24460619676979034	0	0
0.92057337629753555	0.24460619676978995	0	0
0.94871625507631385	0.084999999999999576	0	0
0.78139576212121287	0.54470927620615583	0	0
0.86242995193217176	0.40435394230339478	0	0
0.5479702868598344	0.77911237787932497	0	0
0.6721218684745015	0.67493683153638173	0	0
0.24845150782303416	0.91954302830617229	0	0
0.40074596821647956	0.86411237787932516	0	0
[NumSegments] = 190
0	1	-1	0	0	10
0	2	-1	0	0	10
4	5	-1	0	0	10
4	6	-1	0	0	10
7	5	-1	0	0	10
5	0	-1	0	0	10
8	9	-1	0	0	10
8	10	-1	0	0	10
11	9	-1	0	0	10
12	13	-1	0	0	10
12	14	-1	0	0	10
15	13	-1	0	0	10
13	8	-1	0	0	10
16	17	-1	0	0	10
16	18	-1	0	0	10
19	17	-1	0	0	10
20	21	-1	0	0	10
20	22	-1	0	0	10
23	21	-1	0	0	10
21	16	-1	0	0	10
24	25	-1	0	0	10
24	26	-1	0	0	10
27	25	-1	0	0	10
28	29	-1	0	0	10
28	30	-1	0	0	10
31	29	-1	0	0	10
29	24	-1	0	0	10
32	33	-1	0	0	10
32	34	-1	0	0	10
35	33	-1	0	0	10
36	37	-1	0	0	10
36	38	-1	0	0	10
39	37	-1	0	0	10
37	32	-1	0	0	10
40	41	-1	0	0	10
40	42	-1	0	0	10
43	41	-1	0	0	10
44	45	-1	0	0	10
44	46	-1	0	0	10
47	45	-1	0	0	10
45	40	-1	0	0	10
48	49	-1	0	0	10
48	50	-1	0	0	10
51	49	-1	0	0	10
52	53	-1	0	0	10
52	54	-1	0	0	10
55	53	-1	0	0	10
53	48	-1	0	0	10
56	57	-1	0	0	10
56	58	-1	0	0	10
59	57	-1	0	0	10
60	61	-1	0	0	10
60	62	-1	0	0	10
63	61	-1	0	0	10
61	56	-1	0	0	10
9	4	-1	0	0	10
17	12	-1	0	0	10
25	20	-1	0	0	10
33	28	-1	0	0	10
41	36	-1	0	0	10
49	44	-1	0	0	10
57	52	-1	0	0	10
1	60	-1	0	0	10
69	70	-1	0	0	0
71	72	-1	0	0	0
73	205	-1	0	0	0
205	74	-1	0	0	0
75	202	-1	0	0	0
202	76	-1	0	0	0
1	3	-1	0	0	10
78	207	-1	0	0	0
207	111	-1	0	0	0
77	204	-1	0	0	0
204	112	-1	0	0	0
80	209	-1	0	0	0
209	113	-1	0	0	0
79	206	-1	0	0	0
206	114	-1	0	0	0
82	211	-1	0	0	0
211	115	-1	0	0	0
81	208	-1	0	0	0
208	116	-1	0	0	0
84	176	-1	0	0	0
83	210	-1	0	0	0
210	118	-1	0	0	0
86	179	-1	0	0	0
179	119	-1	0	0	0
85	177	-1	0	0	0
88	181	-1	0	0	0
181	121	-1	0	0	0
87	178	-1	0	0	0
178	122	-1	0	0	0
90	183	-1	0	0	0
183	123	-1	0	0	0
89	180	-1	0	0	0
180	124	-1	0	0	0
92	185	-1	0	0	0
185	125	-1	0	0	0
91	182	-1	0	0	0
182	126	-1	0	0	0
94	187	-1	0	0	0
187	127	-1	0	0	0
93	184	-1	0	0	0
184	128	-1	0	0	0
96	189	-1	0	0	0
189	129	-1	0	0	0
95	186	-1	0	0	0
186	130	-1	0	0	0
98	191	-1	0	0	0
191	131	-1	0	0	0
97	188	-1	0	0	0
188	132	-1	0	0	0
100	193	-1	0	0	0
193	133	-1	0	0	0
99	190	-1	0	0	0
190	134	-1	0	0	0
102	195	-1	0	0	0
195	135	-1	0	0	0
101	192	-1	0	0	0
192	136	-1	0	0	0
104	197	-1	0	0	0
197	137	-1	0	0	0
103	194	-1	0	0	0
194	138	-1	0	0	0
106	199	-1	0	0	0
199	139	-1	0	0	0
105	196	-1	0	0	0
196	140	-1	0	0	0
108	201	-1	0	0	0
201	141	-1	0	0	0
107	198	-1	0	0	0
198	142	-1	0	0	0
110	203	-1	0	0	0
203	143	-1	0	0	0
109	200	-1	0	0	0
200	144	-1	0	0	0
145	161	-1	0	0	0
146	162	-1	0	0	0
147	163	-1	0	0	0
148	164	-1	0	0	0
149	165	-1	0	0	0
150	166	-1	0	0	0
151	167	-1	0	0	0
152	168	-1	0	0	0
153	169	-1	0	0	0
154	68	-1	0	0	0
155	170	-1	0	0	0
156	171	-1	0	0	0
157	172	-1	0	0	0
158	173	-1	0	0	0
159	174	-1	0	0	0
160	175	-1	0	0	0
176	117	-1	0	0	0
177	120	-1	0	0	0
177	164	-1	0	0	0
164	176	-1	0	0	0
178	165	-1	0	0	0
165	179	-1	0	0	0
180	166	-1	0	0	0
166	181	-1	0	0	0
182	167	-1	0	0	0
167	183	-1	0	0	0
184	168	-1	0	0	0
168	185	-1	0	0	0
186	169	-1	0	0	0
169	187	-1	0	0	0
188	68	-1	0	0	0
68	189	-1	0	0	0
190	170	-1	0	0	0
170	191	-1	0	0	0
192	171	-1	0	0	0
171	193	-1	0	0	0
194	172	-1	0	0	0
172	195	-1	0	0	0
196	173	-1	0	0	0
173	197	-1	0	0	0
198	174	-1	0	0	0
174	199	-1	0	0	0
200	175	-1	0	0	0
175	201	-1	0	0	0
202	70	-1	0	0	0
70	203	-1	0	0	0
204	72	-1	0	0	0
72	205	-1	0	0	0
206	161	-1	0	0	0
161	207	-1	0	0	0
208	162	-1	0	0	0
162	209	-1	0	0	0
210	163	-1	0	0	0
163	211	-1	0	0	0
[NumArcSegments] = 74
3	2	18.777063926475442	1	0	0	10
7	6	18.777063926475442	1	0	0	10
11	10	18.777063926475442	1	0	0	10
15	14	18.777063926475442	1	0	0	10
19	18	18.777063926475442	1	0	0	10
23	22	18.777063926475442	1	0	0	10
27	26	18.777063926475442	1	0	0	10
31	30	18.777063926475442	1	0	0	10
35	34	18.777063926475442	1	0	0	10
39	38	18.777063926475442	1	0	0	10
43	42	18.777063926475442	1	0	0	10
47	46	18.777063926475442	1	0	0	10
51	50	18.777063926475442	1	0	0	10
55	54	18.777063926475442	1	0	0	10
59	58	18.777063926475442	1	0	0	10
63	62	18.777063926475442	1	0	0	10
64	65	180	1	0	0	10
65	64	180	1	0	0	10
66	67	180	1	1	0	0
67	66	180	1	1	0	0
75	73	10.719233046668093	1	0	0	0
69	76	5.6002428868927456	1	0	0	0
71	112	5.6002428868927483	1	0	0	0
74	71	5.6002428868927048	1	0	0	0
77	78	10.719233046668093	1	0	0	0
79	80	10.719233046668093	1	0	0	0
81	82	10.719233046668093	1	0	0	0
83	84	10.719233046668093	1	0	0	0
85	86	10.719233046668093	1	0	0	0
87	88	10.719233046668093	1	0	0	0
89	90	10.719233046668093	1	0	0	0
91	92	10.719233046668093	1	0	0	0
93	94	10.719233046668093	1	0	0	0
95	96	10.719233046668093	1	0	0	0
97	98	10.719233046668093	1	0	0	0
99	100	10.719233046668093	1	0	0	0
101	102	10.719233046668093	1	0	0	0
103	104	10.719233046668093	1	0	0	0
105	106	10.719233046668093	1	0	0	0
107	108	10.719233046668093	1	0	0	0
109	110	10.719233046668093	1	0	0	0
145	114	5.6002428868927483	1	0	0	0
111	145	5.6002428868927048	1	0	0	0
146	116	5.6002428868927483	1	0	0	0
113	146	5.6002428868927048	1	0	0	0
147	118	5.6002428868927483	1	0	0	0
115	147	5.6002428868927048	1	0	0	0
148	120	5.6002428868927483	1	0	0	0
117	148	5.6002428868927048	1	0	0	0
149	122	5.6002428868927483	1	0	0	0
119	149	5.6002428868927048	1	0	0	0
150	124	5.6002428868927483	1	0	0	0
121	150	5.6002428868927048	1	0	0	0
151	126	5.6002428868927483	1	0	0	0
123	151	5.6002428868927048	1	0	0	0
152	128	5.6002428868927483	1	0	0	0
125	152	5.6002428868927048	1	0	0	0
153	130	5.6002428868927483	1	0	0	0
127	153	5.6002428868927048	1	0	0	0
154	132	5.6002428868927483	1	0	0	0
129	154	5.6002428868927048	1	0	0	0
155	134	5.6002428868927483	1	0	0	0
131	155	5.6002428868927048	1	0	0	0
156	136	5.6002428868927483	1	0	0	0
133	156	5.6002428868927048	1	0	0	0
157	138	5.6002428868927483	1	0	0	0
135	157	5.6002428868927048	1	0	0	0
158	140	5.6002428868927483	1	0	0	0
137	158	5.6002428868927048	1	0	0	0
159	142	5.6002428868927483	1	0	0	0
139	159	5.6002428868927048	1	0	0	0
160	144	5.6002428868927483	1	0	0	0
141	160	5.6002428868927048	1	0	0	0
143	69	5.6002428868927048	1	0	0	0
[NumHoles] = 0
[NumBlockLabels] = 56
0.78529760263459369	0.32528091751032628	1	-1	0	22.5	11	1	0
0.60104076400856532	0.60104076400856532	1	-1	0	-135	12	1	0
0.32528091751032634	0.78529760263459369	1	-1	0	67.5	13	1	0
1.1102230246251565e-016	0.84999999999999998	1	-1	0	-90	14	1	0
-0.32528091751032623	0.78529760263459369	1	-1	0	112.5	15	1	0
-0.60104076400856532	0.60104076400856532	1	-1	0	-45	16	1	0
-0.78529760263459369	0.32528091751032634	1	-1	0	157.5	17	1	0
-0.84999999999999998	1.1102230246251565e-016	1	-1	0	0	18	1	0
-0.78529760263459369	-0.32528091751032617	1	-1	0	202.5	19	1	0
-0.60104076400856532	-0.60104076400856521	1	-1	0	45	20	1	0
-0.32528091751032645	-0.78529760263459369	1	-1	0	247.5	21	1	0
-2.2204460492503131e-016	-0.84999999999999998	1	-1	0	90	22	1	0
0.32528091751032612	-0.78529760263459381	1	-1	0	292.5	23	1	0
0.60104076400856521	-0.60104076400856543	1	-1	0	135	24	1	0
0.78529760263459358	-0.32528091751032651	1	-1	0	337.5	25	1	0
0.84999999999999987	-2.2204460492503131e-016	1	-1	0	180	26	1	0
0.188	0.14199999999999999	2	-1	0	0	0	1	0
0	0.90000000000000002	2	-1	0	0	0	1	0
1.1499999999999999	0	3	-1	0	0	1	1	0
1.0250000000000001	-0.125	4	-1	1	0	2	23	0
1.0250000000000001	0.125	4	-1	1	0	2	-23	0
1.0059374542212649	0.2331090693105719	4	-1	1	0	2	-23	0
0.92043241838984768	0.46803222450704901	4	-1	1	0	2	23	0
0.92043241838984768	-0.46803222450704901	4	-1	1	0	2	-23	0
1.0059374542212649	-0.2331090693105719	4	-1	1	0	2	23	0
-1.0250000000000001	0.12500000000000014	4	-1	1	0	2	23	0
-1.0250000000000001	-0.12499999999999988	4	-1	1	0	2	-23	0
-1.0059374542212649	-0.23310906931057179	4	-1	1	0	2	-23	0
-0.9204324183898478	-0.4680322245070489	4	-1	1	0	2	23	0
-0.92043241838984757	0.46803222450704912	4	-1	1	0	2	-23	0
-1.0059374542212649	0.23310906931057201	4	-1	1	0	2	23	0
0.62075317547305497	0.82517603887904967	4	-1	2	0	2	23	0
0.40424682452694538	0.95017603887904967	4	-1	2	0	2	-23	0
0.30109035123512984	0.9877219246291471	4	-1	2	0	2	-23	0
0.054888412982077806	1.0311339690458796	4	-1	2	0	2	23	0
0.8655440054077701	0.56310174453883055	4	-1	2	0	2	-23	0
0.70484710298613529	0.75461285531857514	4	-1	2	0	2	23	0
-0.62075317547305509	-0.82517603887904956	4	-1	2	0	2	23	0
-0.40424682452694549	-0.95017603887904967	4	-1	2	0	2	-23	0
-0.30109035123512995	-0.9877219246291471	4	-1	2	0	2	-23	0
-0.05488841298207793	-1.0311339690458796	4	-1	2	0	2	23	0
-0.86554400540777021	-0.56310174453883044	4	-1	2	0	2	-23	0
-0.7048471029861354	-0.75461285531857503	4	-1	2	0	2	23	0
-0.40424682452694505	0.95017603887904989	4	-1	3	0	2	23	0
-0.62075317547305464	0.82517603887904989	4	-1	3	0	2	-23	0
-0.70484710298613495	0.75461285531857536	4	-1	3	0	2	-23	0
-0.86554400540776977	0.56310174453883088	4	-1	3	0	2	23	0
-0.054888412982077361	1.0311339690458796	4	-1	3	0	2	-23	0
-0.30109035123512951	0.98772192462914732	4	-1	3	0	2	23	0
0.40424682452694494	-0.95017603887904989	4	-1	3	0	2	23	0
0.62075317547305453	-0.82517603887905	4	-1	3	0	2	-23	0
0.70484710298613484	-0.75461285531857547	4	-1	3	0	2	-23	0
0.86554400540776966	-0.56310174453883099	4	-1	3	0	2	23	0
0.054888412982077237	-1.0311339690458796	4	-1	3	0	2	-23	0
0.30109035123512939	-0.98772192462914732	4	-1	3	0	2	23	0
-0.3131438335713449	0.70373357138638903	3	-1	0	0	10	1	0
